
     RDKit          3D

 40 42  0  0  0  0  0  0  0  0999 V2000
   -1.5884    0.8430   -2.3185 O   0  0  0  0  0  0  0  0  0  0  0  0
   -1.1800    0.2879   -1.3108 C   0  0  0  0  0  0  0  0  0  0  0  0
    0.2564    0.1454   -0.9558 C   0  0  0  0  0  0  0  0  0  0  0  0
    1.2107    0.6579   -1.8414 C   0  0  0  0  0  0  0  0  0  0  0  0
    2.5747    0.5495   -1.5491 C   0  0  0  0  0  0  0  0  0  0  0  0
    3.0165   -0.0720   -0.3697 C   0  0  0  0  0  0  0  0  0  0  0  0
    2.0469   -0.5822    0.5095 C   0  0  0  0  0  0  0  0  0  0  0  0
    0.6805   -0.4765    0.2236 C   0  0  0  0  0  0  0  0  0  0  0  0
    4.4522   -0.1856   -0.0642 C   0  0  0  0  0  0  0  0  0  0  0  0
    5.2846    0.9463   -0.0649 C   0  0  0  0  0  0  0  0  0  0  0  0
    6.6475    0.8393    0.2260 C   0  0  0  0  0  0  0  0  0  0  0  0
    7.2018   -0.4032    0.5218 C   0  0  0  0  0  0  0  0  0  0  0  0
    6.3950   -1.5380    0.5276 C   0  0  0  0  0  0  0  0  0  0  0  0
    5.0322   -1.4293    0.2375 C   0  0  0  0  0  0  0  0  0  0  0  0
   -1.9768   -0.2652   -0.3622 O   0  0  0  0  0  0  0  0  0  0  0  0
   -3.3780   -0.2236   -0.6552 C   0  0  2  0  0  0  0  0  0  0  0  0
   -3.9634    1.1889   -0.6833 C   0  0  0  0  0  0  0  0  0  0  0  0
   -5.3792    1.0165   -0.2991 N   0  0  0  0  0  0  0  0  0  0  0  0
   -5.5560   -0.3725    0.3427 C   0  0  1  0  0  0  0  0  0  0  0  0
   -4.1357   -0.8876    0.4837 C   0  0  0  0  0  0  0  0  0  0  0  0
   -6.2315   -0.2298    1.7301 C   0  0  0  0  0  0  0  0  0  0  0  0
   -6.4737   -1.2815    2.3579 O   0  0  0  0  0  0  0  0  0  0  0  0
   -6.4178    1.0039    1.9904 O   0  0  0  0  0  0  0  0  0  0  0  0
    0.9030    1.1416   -2.7666 H   0  0  0  0  0  0  0  0  0  0  0  0
    3.2979    0.9455   -2.2605 H   0  0  0  0  0  0  0  0  0  0  0  0
    2.3532   -1.0600    1.4393 H   0  0  0  0  0  0  0  0  0  0  0  0
   -0.0334   -0.8838    0.9356 H   0  0  0  0  0  0  0  0  0  0  0  0
    4.8715    1.9295   -0.2814 H   0  0  0  0  0  0  0  0  0  0  0  0
    7.2739    1.7276    0.2242 H   0  0  0  0  0  0  0  0  0  0  0  0
    8.2615   -0.4870    0.7482 H   0  0  0  0  0  0  0  0  0  0  0  0
    6.8252   -2.5098    0.7556 H   0  0  0  0  0  0  0  0  0  0  0  0
    4.4239   -2.3316    0.2374 H   0  0  0  0  0  0  0  0  0  0  0  0
   -3.5809   -0.7566   -1.5937 H   0  0  0  0  0  0  0  0  0  0  0  0
   -3.9364    1.6518   -1.6729 H   0  0  0  0  0  0  0  0  0  0  0  0
   -3.4933    1.8534    0.0490 H   0  0  0  0  0  0  0  0  0  0  0  0
   -5.6619    1.6277    0.5116 H   0  0  0  0  0  0  0  0  0  0  0  0
   -6.0825    1.1838   -1.0230 H   0  0  0  0  0  0  0  0  0  0  0  0
   -6.1581   -0.9605   -0.3565 H   0  0  0  0  0  0  0  0  0  0  0  0
   -4.0884   -1.9797    0.4112 H   0  0  0  0  0  0  0  0  0  0  0  0
   -3.6939   -0.6235    1.4536 H   0  0  0  0  0  0  0  0  0  0  0  0
  1  2  2  0
  2  3  1  0
  3  4  2  0
  4  5  1  0
  5  6  2  0
  6  7  1  0
  7  8  2  0
  6  9  1  0
  9 10  2  0
 10 11  1  0
 11 12  2  0
 12 13  1  0
 13 14  2  0
  2 15  1  0
 16 15  1  0
 16 17  1  0
 17 18  1  0
 18 19  1  0
 19 20  1  0
 19 21  1  0
 21 22  1  0
 21 23  2  0
  8  3  1  0
 14  9  1  0
 20 16  1  0
  4 24  1  0
  5 25  1  0
  7 26  1  0
  8 27  1  0
 10 28  1  0
 11 29  1  0
 12 30  1  0
 13 31  1  0
 14 32  1  0
 16 33  1  6
 17 34  1  0
 17 35  1  0
 18 36  1  0
 18 37  1  0
 19 38  1  6
 20 39  1  0
 20 40  1  0
M  CHG  2  18   1  22  -1
M  END
>  <ScrubInfo>  (1) 
{"isomerGroup": 0, "isomerId": 0, "confId": 0, "nr_conformers:": 1, "nr_isomers:": 1}

$$$$

     RDKit          3D

 51 53  0  0  0  0  0  0  0  0999 V2000
    1.5505   -0.6224    0.4371 C   0  0  0  0  0  0  0  0  0  0  0  0
    0.3321    0.2335    0.7462 N   0  0  0  0  0  0  0  0  0  0  0  0
   -0.8107   -0.6479    1.2484 C   0  0  0  0  0  0  0  0  0  0  0  0
   -0.0906    1.1148   -0.4139 C   0  0  0  0  0  0  0  0  0  0  0  0
    2.8393    0.2186    0.4073 C   0  0  0  0  0  0  0  0  0  0  0  0
    4.0418   -0.5649   -0.1415 C   0  0  1  0  0  0  0  0  0  0  0  0
    5.3165    0.2333    0.0866 N   0  0  0  0  0  0  0  0  0  0  0  0
    4.1731   -1.9287    0.5904 C   0  0  0  0  0  0  0  0  0  0  0  0
    3.2883   -2.7742    0.3431 O   0  0  0  0  0  0  0  0  0  0  0  0
    5.1806   -1.8993    1.3592 O   0  0  0  0  0  0  0  0  0  0  0  0
   -1.5655   -1.3459    0.1453 C   0  0  0  0  0  0  0  0  0  0  0  0
   -2.4500   -0.5947   -0.6710 C   0  0  0  0  0  0  0  0  0  0  0  0
   -1.3508   -2.7143   -0.1042 C   0  0  0  0  0  0  0  0  0  0  0  0
   -2.6084    0.8652   -0.4682 C   0  0  0  0  0  0  0  0  0  0  0  0
   -3.1378   -1.2606   -1.6960 C   0  0  0  0  0  0  0  0  0  0  0  0
   -2.0538   -3.3493   -1.1260 C   0  0  0  0  0  0  0  0  0  0  0  0
   -0.4415   -3.3274    0.7131 O   0  0  0  0  0  0  0  0  0  0  0  0
   -1.4753    1.7078   -0.2923 C   0  0  0  0  0  0  0  0  0  0  0  0
   -3.8867    1.4365   -0.3902 C   0  0  0  0  0  0  0  0  0  0  0  0
   -2.9468   -2.6251   -1.9156 C   0  0  0  0  0  0  0  0  0  0  0  0
    0.1105   -4.5636    0.2620 C   0  0  0  0  0  0  0  0  0  0  0  0
   -1.6447    3.0788   -0.0117 C   0  0  0  0  0  0  0  0  0  0  0  0
   -4.0461    2.7969   -0.1350 C   0  0  0  0  0  0  0  0  0  0  0  0
   -0.4925    3.7936    0.1914 O   0  0  0  0  0  0  0  0  0  0  0  0
   -2.9323    3.6129    0.0601 C   0  0  0  0  0  0  0  0  0  0  0  0
   -0.6264    5.2006    0.3899 C   0  0  0  0  0  0  0  0  0  0  0  0
    1.3638   -1.1299   -0.5150 H   0  0  0  0  0  0  0  0  0  0  0  0
    1.6113   -1.3490    1.2517 H   0  0  0  0  0  0  0  0  0  0  0  0
    0.5468    0.8517    1.5347 H   0  0  0  0  0  0  0  0  0  0  0  0
   -1.4817    0.0032    1.8240 H   0  0  0  0  0  0  0  0  0  0  0  0
   -0.3966   -1.3327    1.9968 H   0  0  0  0  0  0  0  0  0  0  0  0
    0.6753    1.8904   -0.5017 H   0  0  0  0  0  0  0  0  0  0  0  0
   -0.0197    0.5210   -1.3347 H   0  0  0  0  0  0  0  0  0  0  0  0
    3.0495    0.5705    1.4257 H   0  0  0  0  0  0  0  0  0  0  0  0
    2.7073    1.1126   -0.2113 H   0  0  0  0  0  0  0  0  0  0  0  0
    3.9610   -0.7148   -1.2229 H   0  0  0  0  0  0  0  0  0  0  0  0
    5.7387   -0.2983    0.8958 H   0  0  0  0  0  0  0  0  0  0  0  0
    5.2348    1.2134    0.3565 H   0  0  0  0  0  0  0  0  0  0  0  0
    6.0016    0.0874   -0.6620 H   0  0  0  0  0  0  0  0  0  0  0  0
   -3.8233   -0.7207   -2.3482 H   0  0  0  0  0  0  0  0  0  0  0  0
   -1.9357   -4.4102   -1.3283 H   0  0  0  0  0  0  0  0  0  0  0  0
   -4.7786    0.8214   -0.5069 H   0  0  0  0  0  0  0  0  0  0  0  0
   -3.4932   -3.1274   -2.7121 H   0  0  0  0  0  0  0  0  0  0  0  0
    0.5160   -4.4722   -0.7511 H   0  0  0  0  0  0  0  0  0  0  0  0
    0.9349   -4.8245    0.9323 H   0  0  0  0  0  0  0  0  0  0  0  0
   -0.6344   -5.3634    0.3197 H   0  0  0  0  0  0  0  0  0  0  0  0
   -5.0468    3.2219   -0.0747 H   0  0  0  0  0  0  0  0  0  0  0  0
   -3.1129    4.6633    0.2708 H   0  0  0  0  0  0  0  0  0  0  0  0
    0.3802    5.6184    0.4881 H   0  0  0  0  0  0  0  0  0  0  0  0
   -1.1030    5.6782   -0.4725 H   0  0  0  0  0  0  0  0  0  0  0  0
   -1.1679    5.4156    1.3167 H   0  0  0  0  0  0  0  0  0  0  0  0
  1  2  1  0
  2  3  1  0
  2  4  1  0
  5  1  1  0
  6  5  1  0
  6  7  1  0
  6  8  1  0
  8  9  2  0
  8 10  1  0
  3 11  1  0
 11 12  2  0
 13 11  1  0
 12 14  1  0
 12 15  1  0
 16 13  2  0
 13 17  1  0
 14 18  2  0
 19 14  1  0
 15 20  2  0
 20 16  1  0
 17 21  1  0
 18  4  1  0
 18 22  1  0
 23 19  2  0
 22 24  1  0
 22 25  2  0
 25 23  1  0
 24 26  1  0
  1 27  1  0
  1 28  1  0
  2 29  1  0
  3 30  1  0
  3 31  1  0
  4 32  1  0
  4 33  1  0
  5 34  1  0
  5 35  1  0
  6 36  1  6
  7 37  1  0
  7 38  1  0
  7 39  1  0
 15 40  1  0
 16 41  1  0
 19 42  1  0
 20 43  1  0
 21 44  1  0
 21 45  1  0
 21 46  1  0
 23 47  1  0
 25 48  1  0
 26 49  1  0
 26 50  1  0
 26 51  1  0
M  CHG  3   2   1   7   1  10  -1
M  END
>  <ScrubInfo>  (2) 
{"isomerGroup": 1, "isomerId": 0, "confId": 0, "nr_conformers:": 1, "nr_isomers:": 1}

$$$$

     RDKit          3D

 79 82  0  0  0  0  0  0  0  0999 V2000
    0.3332    2.4888   -1.9301 C   0  0  0  0  0  0  0  0  0  0  0  0
    0.1528    0.9858   -1.9221 N   0  0  0  0  0  0  0  0  0  0  0  0
   -0.9844    0.5431   -2.8199 C   0  0  0  0  0  0  0  0  0  0  0  0
    1.4332    0.2459   -2.2320 C   0  0  0  0  0  0  0  0  0  0  0  0
    0.9484    2.9672   -0.6022 C   0  0  0  0  0  0  0  0  0  0  0  0
    0.7770    4.4738   -0.3969 C   0  0  1  0  0  0  0  0  0  0  0  0
    1.4142    4.8965    0.9201 N   0  0  0  0  0  0  0  0  0  0  0  0
    1.3851    5.3434   -1.5339 C   0  0  0  0  0  0  0  0  0  0  0  0
    1.1712    4.9646   -2.7035 O   0  0  0  0  0  0  0  0  0  0  0  0
    2.0481    6.2970   -1.0222 O   0  0  0  0  0  0  0  0  0  0  0  0
   -2.3547    0.9940   -2.3694 C   0  0  0  0  0  0  0  0  0  0  0  0
   -2.8028    0.7985   -1.0462 C   0  0  0  0  0  0  0  0  0  0  0  0
   -3.2255    1.5645   -3.3148 C   0  0  0  0  0  0  0  0  0  0  0  0
   -1.8768    0.2684   -0.1834 O   0  0  0  0  0  0  0  0  0  0  0  0
   -4.1061    1.1640   -0.7000 C   0  0  0  0  0  0  0  0  0  0  0  0
   -4.5169    1.9394   -2.9527 C   0  0  0  0  0  0  0  0  0  0  0  0
   -2.2915   -0.0933    1.1417 C   0  0  0  0  0  0  0  0  0  0  0  0
   -4.9566    1.7351   -1.6495 C   0  0  0  0  0  0  0  0  0  0  0  0
   -2.9686   -1.4385    1.2110 C   0  0  0  0  0  0  0  0  0  0  0  0
   -2.5804   -2.4968    0.3773 C   0  0  0  0  0  0  0  0  0  0  0  0
   -3.9635   -1.6670    2.1743 C   0  0  0  0  0  0  0  0  0  0  0  0
   -3.1943   -3.7446    0.4837 C   0  0  0  0  0  0  0  0  0  0  0  0
   -4.5742   -2.9229    2.2984 C   0  0  0  0  0  0  0  0  0  0  0  0
   -4.1916   -3.9548    1.4356 C   0  0  0  0  0  0  0  0  0  0  0  0
   -5.6636   -3.1392    3.3083 C   0  0  0  0  0  0  0  0  0  0  0  0
    1.4083   -1.2022   -1.8183 C   0  0  0  0  0  0  0  0  0  0  0  0
    1.3192   -1.5633   -0.4592 C   0  0  0  0  0  0  0  0  0  0  0  0
    1.4936   -2.2061   -2.7969 C   0  0  0  0  0  0  0  0  0  0  0  0
    1.2195   -0.5163    0.4243 O   0  0  0  0  0  0  0  0  0  0  0  0
    1.3041   -2.9151   -0.1059 C   0  0  0  0  0  0  0  0  0  0  0  0
    1.4816   -3.5500   -2.4314 C   0  0  0  0  0  0  0  0  0  0  0  0
    1.5269   -0.7707    1.8047 C   0  0  0  0  0  0  0  0  0  0  0  0
    1.3863   -3.9025   -1.0895 C   0  0  0  0  0  0  0  0  0  0  0  0
    3.0082   -0.9174    2.0474 C   0  0  0  0  0  0  0  0  0  0  0  0
    3.4934   -1.9733    2.8305 C   0  0  0  0  0  0  0  0  0  0  0  0
    3.9188    0.0157    1.5232 C   0  0  0  0  0  0  0  0  0  0  0  0
    4.8611   -2.1019    3.0721 C   0  0  0  0  0  0  0  0  0  0  0  0
    5.2951   -0.1144    1.7520 C   0  0  0  0  0  0  0  0  0  0  0  0
    5.7571   -1.1747    2.5398 C   0  0  0  0  0  0  0  0  0  0  0  0
    6.2605    0.8998    1.2107 C   0  0  0  0  0  0  0  0  0  0  0  0
   -0.6512    2.9471   -2.0649 H   0  0  0  0  0  0  0  0  0  0  0  0
    0.9582    2.7019   -2.8009 H   0  0  0  0  0  0  0  0  0  0  0  0
   -0.1410    0.6780   -0.9828 H   0  0  0  0  0  0  0  0  0  0  0  0
   -0.9876   -0.5527   -2.8505 H   0  0  0  0  0  0  0  0  0  0  0  0
   -0.7481    0.9141   -3.8250 H   0  0  0  0  0  0  0  0  0  0  0  0
    2.2517    0.7476   -1.7032 H   0  0  0  0  0  0  0  0  0  0  0  0
    1.6217    0.3621   -3.3069 H   0  0  0  0  0  0  0  0  0  0  0  0
    0.4746    2.4432    0.2378 H   0  0  0  0  0  0  0  0  0  0  0  0
    2.0138    2.7098   -0.5810 H   0  0  0  0  0  0  0  0  0  0  0  0
   -0.2827    4.7380   -0.3009 H   0  0  0  0  0  0  0  0  0  0  0  0
    0.7735    5.0653    1.6968 H   0  0  0  0  0  0  0  0  0  0  0  0
    2.2610    4.3844    1.1802 H   0  0  0  0  0  0  0  0  0  0  0  0
    1.7966    5.8415    0.6352 H   0  0  0  0  0  0  0  0  0  0  0  0
   -2.9122    1.7174   -4.3469 H   0  0  0  0  0  0  0  0  0  0  0  0
   -4.5117    1.0139    0.2952 H   0  0  0  0  0  0  0  0  0  0  0  0
   -5.1878    2.3779   -3.6897 H   0  0  0  0  0  0  0  0  0  0  0  0
   -1.3754   -0.1624    1.7392 H   0  0  0  0  0  0  0  0  0  0  0  0
   -2.8785    0.7071    1.6079 H   0  0  0  0  0  0  0  0  0  0  0  0
   -5.9725    2.0130   -1.3722 H   0  0  0  0  0  0  0  0  0  0  0  0
   -1.8059   -2.3570   -0.3709 H   0  0  0  0  0  0  0  0  0  0  0  0
   -4.2722   -0.8617    2.8398 H   0  0  0  0  0  0  0  0  0  0  0  0
   -2.8993   -4.5568   -0.1768 H   0  0  0  0  0  0  0  0  0  0  0  0
   -4.6667   -4.9319    1.5023 H   0  0  0  0  0  0  0  0  0  0  0  0
   -5.7471   -4.1967    3.5795 H   0  0  0  0  0  0  0  0  0  0  0  0
   -6.6219   -2.8040    2.9019 H   0  0  0  0  0  0  0  0  0  0  0  0
   -5.4505   -2.5865    4.2289 H   0  0  0  0  0  0  0  0  0  0  0  0
    1.5791   -1.9565   -3.8534 H   0  0  0  0  0  0  0  0  0  0  0  0
    1.2259   -3.2496    0.9232 H   0  0  0  0  0  0  0  0  0  0  0  0
    1.5554   -4.3256   -3.1909 H   0  0  0  0  0  0  0  0  0  0  0  0
    0.9347   -1.6033    2.2017 H   0  0  0  0  0  0  0  0  0  0  0  0
    1.1915    0.1132    2.3611 H   0  0  0  0  0  0  0  0  0  0  0  0
    1.3824   -4.9542   -0.8060 H   0  0  0  0  0  0  0  0  0  0  0  0
    2.8145   -2.7075    3.2608 H   0  0  0  0  0  0  0  0  0  0  0  0
    3.5554    0.8464    0.9244 H   0  0  0  0  0  0  0  0  0  0  0  0
    5.2320   -2.9251    3.6793 H   0  0  0  0  0  0  0  0  0  0  0  0
    6.8204   -1.2869    2.7446 H   0  0  0  0  0  0  0  0  0  0  0  0
    7.2347    0.4430    1.0073 H   0  0  0  0  0  0  0  0  0  0  0  0
    6.3944    1.7120    1.9323 H   0  0  0  0  0  0  0  0  0  0  0  0
    5.8952    1.3206    0.2683 H   0  0  0  0  0  0  0  0  0  0  0  0
  1  2  1  0
  2  3  1  0
  2  4  1  0
  5  1  1  0
  6  5  1  0
  6  7  1  0
  6  8  1  0
  8  9  2  0
  8 10  1  0
  3 11  1  0
 11 12  1  0
 13 11  2  0
 12 14  1  0
 12 15  2  0
 16 13  1  0
 14 17  1  0
 15 18  1  0
 18 16  2  0
 17 19  1  0
 19 20  2  0
 21 19  1  0
 20 22  1  0
 23 21  2  0
 22 24  2  0
 24 23  1  0
 23 25  1  0
  4 26  1  0
 26 27  1  0
 28 26  2  0
 27 29  1  0
 27 30  2  0
 31 28  1  0
 29 32  1  0
 30 33  1  0
 33 31  2  0
 32 34  1  0
 34 35  2  0
 36 34  1  0
 35 37  1  0
 38 36  2  0
 37 39  2  0
 39 38  1  0
 38 40  1  0
  1 41  1  0
  1 42  1  0
  2 43  1  0
  3 44  1  0
  3 45  1  0
  4 46  1  0
  4 47  1  0
  5 48  1  0
  5 49  1  0
  6 50  1  1
  7 51  1  0
  7 52  1  0
  7 53  1  0
 13 54  1  0
 15 55  1  0
 16 56  1  0
 17 57  1  0
 17 58  1  0
 18 59  1  0
 20 60  1  0
 21 61  1  0
 22 62  1  0
 24 63  1  0
 25 64  1  0
 25 65  1  0
 25 66  1  0
 28 67  1  0
 30 68  1  0
 31 69  1  0
 32 70  1  0
 32 71  1  0
 33 72  1  0
 35 73  1  0
 36 74  1  0
 37 75  1  0
 39 76  1  0
 40 77  1  0
 40 78  1  0
 40 79  1  0
M  CHG  3   2   1   7   1  10  -1
M  END
>  <ScrubInfo>  (3) 
{"isomerGroup": 2, "isomerId": 0, "confId": 0, "nr_conformers:": 1, "nr_isomers:": 1}

$$$$

     RDKit          3D

 77 81  0  0  0  0  0  0  0  0999 V2000
    0.7848    2.0462   -0.7994 C   0  0  0  0  0  0  0  0  0  0  0  0
    0.5590    0.6969   -0.1546 N   0  0  0  0  0  0  0  0  0  0  0  0
    0.9499    0.6141    1.2998 C   0  0  0  0  0  0  0  0  0  0  0  0
   -0.7314    0.0132   -0.5286 C   0  0  0  0  0  0  0  0  0  0  0  0
    0.0052    3.1843   -0.1064 C   0  0  0  0  0  0  0  0  0  0  0  0
    0.0729    4.5128   -0.8782 C   0  0  1  0  0  0  0  0  0  0  0  0
   -0.4978    5.6348   -0.0174 N   0  0  0  0  0  0  0  0  0  0  0  0
    1.5523    4.8493   -1.2107 C   0  0  0  0  0  0  0  0  0  0  0  0
    1.9291    5.8398   -0.5128 O   0  0  0  0  0  0  0  0  0  0  0  0
    2.1149    4.0958   -2.0354 O   0  0  0  0  0  0  0  0  0  0  0  0
    1.6373   -0.7000    1.5316 C   0  0  0  0  0  0  0  0  0  0  0  0
    3.0315   -0.7353    1.7658 C   0  0  0  0  0  0  0  0  0  0  0  0
    0.8909   -1.8886    1.3823 C   0  0  0  0  0  0  0  0  0  0  0  0
    3.6264    0.4850    1.9239 O   0  0  0  0  0  0  0  0  0  0  0  0
    3.6859   -1.9642    1.8318 C   0  0  0  0  0  0  0  0  0  0  0  0
   -0.5865   -1.8835    1.2512 C   0  0  0  0  0  0  0  0  0  0  0  0
    1.5947   -3.1053    1.4184 C   0  0  0  0  0  0  0  0  0  0  0  0
    5.0564    0.5864    1.9586 C   0  0  0  0  0  0  0  0  0  0  0  0
    2.9730   -3.1436    1.6366 C   0  0  0  0  0  0  0  0  0  0  0  0
   -1.3289   -1.0315    0.3933 C   0  0  0  0  0  0  0  0  0  0  0  0
   -1.3073   -2.7728    2.0858 C   0  0  0  0  0  0  0  0  0  0  0  0
    5.6445    0.5790    0.5696 C   0  0  0  0  0  0  0  0  0  0  0  0
   -2.7392   -1.1900    0.3365 C   0  0  0  0  0  0  0  0  0  0  0  0
   -2.6970   -2.8579    2.0679 C   0  0  0  0  0  0  0  0  0  0  0  0
    6.5792   -0.3989    0.1966 C   0  0  0  0  0  0  0  0  0  0  0  0
    5.2720    1.5570   -0.3625 C   0  0  0  0  0  0  0  0  0  0  0  0
   -3.4161   -2.0623    1.1919 C   0  0  0  0  0  0  0  0  0  0  0  0
   -3.4417   -0.3864   -0.5370 O   0  0  0  0  0  0  0  0  0  0  0  0
    7.1170   -0.4232   -1.0973 C   0  0  0  0  0  0  0  0  0  0  0  0
    5.8141    1.5451   -1.6510 C   0  0  0  0  0  0  0  0  0  0  0  0
   -4.3185   -1.1232   -1.4186 C   0  0  0  0  0  0  0  0  0  0  0  0
    8.1418   -1.4542   -1.4786 C   0  0  0  0  0  0  0  0  0  0  0  0
    6.7333    0.5625   -2.0151 C   0  0  0  0  0  0  0  0  0  0  0  0
   -5.7646   -1.0857   -0.9839 C   0  0  0  0  0  0  0  0  0  0  0  0
   -6.5778   -2.2166   -1.1848 C   0  0  0  0  0  0  0  0  0  0  0  0
   -6.3315    0.0663   -0.4214 C   0  0  0  0  0  0  0  0  0  0  0  0
   -7.9304   -2.2091   -0.8200 C   0  0  0  0  0  0  0  0  0  0  0  0
   -7.6723    0.0729   -0.0401 C   0  0  0  0  0  0  0  0  0  0  0  0
   -8.7722   -3.4373   -1.0102 C   0  0  0  0  0  0  0  0  0  0  0  0
   -8.4655   -1.0598   -0.2314 C   0  0  0  0  0  0  0  0  0  0  0  0
    0.5074    1.9394   -1.8507 H   0  0  0  0  0  0  0  0  0  0  0  0
    1.8620    2.2014   -0.7215 H   0  0  0  0  0  0  0  0  0  0  0  0
    1.2801    0.1146   -0.6126 H   0  0  0  0  0  0  0  0  0  0  0  0
    1.6078    1.4617    1.5098 H   0  0  0  0  0  0  0  0  0  0  0  0
    0.0582    0.7550    1.9243 H   0  0  0  0  0  0  0  0  0  0  0  0
   -0.5685   -0.4395   -1.5146 H   0  0  0  0  0  0  0  0  0  0  0  0
   -1.4465    0.8343   -0.6530 H   0  0  0  0  0  0  0  0  0  0  0  0
    0.4051    3.3291    0.9046 H   0  0  0  0  0  0  0  0  0  0  0  0
   -1.0491    2.9096    0.0103 H   0  0  0  0  0  0  0  0  0  0  0  0
   -0.5377    4.4803   -1.7855 H   0  0  0  0  0  0  0  0  0  0  0  0
    0.3878    6.1501    0.2421 H   0  0  0  0  0  0  0  0  0  0  0  0
   -1.0216    6.3289   -0.5649 H   0  0  0  0  0  0  0  0  0  0  0  0
   -0.9697    5.3803    0.8506 H   0  0  0  0  0  0  0  0  0  0  0  0
    4.7524   -2.0498    2.0128 H   0  0  0  0  0  0  0  0  0  0  0  0
    1.0707   -4.0541    1.2849 H   0  0  0  0  0  0  0  0  0  0  0  0
    5.5049   -0.1571    2.6293 H   0  0  0  0  0  0  0  0  0  0  0  0
    5.2901    1.5559    2.4137 H   0  0  0  0  0  0  0  0  0  0  0  0
    3.4923   -4.1028    1.6788 H   0  0  0  0  0  0  0  0  0  0  0  0
   -0.7795   -3.4130    2.7948 H   0  0  0  0  0  0  0  0  0  0  0  0
   -3.2150   -3.5385    2.7418 H   0  0  0  0  0  0  0  0  0  0  0  0
    6.8942   -1.1520    0.9151 H   0  0  0  0  0  0  0  0  0  0  0  0
    4.5695    2.3444   -0.0980 H   0  0  0  0  0  0  0  0  0  0  0  0
   -4.5003   -2.1268    1.2030 H   0  0  0  0  0  0  0  0  0  0  0  0
    5.5304    2.3171   -2.3628 H   0  0  0  0  0  0  0  0  0  0  0  0
   -3.9688   -2.1551   -1.5523 H   0  0  0  0  0  0  0  0  0  0  0  0
   -4.2472   -0.6490   -2.4028 H   0  0  0  0  0  0  0  0  0  0  0  0
    8.1524   -2.2868   -0.7641 H   0  0  0  0  0  0  0  0  0  0  0  0
    9.1410   -1.0042   -1.4935 H   0  0  0  0  0  0  0  0  0  0  0  0
    7.9233   -1.8695   -2.4692 H   0  0  0  0  0  0  0  0  0  0  0  0
    7.1561    0.5684   -3.0190 H   0  0  0  0  0  0  0  0  0  0  0  0
   -6.1560   -3.1145   -1.6340 H   0  0  0  0  0  0  0  0  0  0  0  0
   -5.7341    0.9630   -0.2673 H   0  0  0  0  0  0  0  0  0  0  0  0
   -8.1052    0.9616    0.4116 H   0  0  0  0  0  0  0  0  0  0  0  0
   -8.6616   -4.1007   -0.1460 H   0  0  0  0  0  0  0  0  0  0  0  0
   -9.8322   -3.1788   -1.1244 H   0  0  0  0  0  0  0  0  0  0  0  0
   -8.4691   -3.9786   -1.9121 H   0  0  0  0  0  0  0  0  0  0  0  0
   -9.5111   -1.0365    0.0750 H   0  0  0  0  0  0  0  0  0  0  0  0
  1  2  1  0
  2  3  1  0
  2  4  1  0
  5  1  1  0
  6  5  1  0
  6  7  1  0
  6  8  1  0
  8  9  2  0
  8 10  1  0
  3 11  1  0
 11 12  2  0
 11 13  1  0
 12 14  1  0
 12 15  1  0
 13 16  1  0
 13 17  2  0
 14 18  1  0
 15 19  2  0
 16 20  2  0
 16 21  1  0
 19 17  1  0
 18 22  1  0
 20  4  1  0
 20 23  1  0
 21 24  2  0
 22 25  2  0
 26 22  1  0
 27 23  2  0
 23 28  1  0
 24 27  1  0
 25 29  1  0
 30 26  2  0
 28 31  1  0
 29 32  1  0
 29 33  2  0
 33 30  1  0
 31 34  1  0
 34 35  2  0
 36 34  1  0
 35 37  1  0
 38 36  2  0
 37 39  1  0
 37 40  2  0
 40 38  1  0
  1 41  1  0
  1 42  1  0
  2 43  1  0
  3 44  1  0
  3 45  1  0
  4 46  1  0
  4 47  1  0
  5 48  1  0
  5 49  1  0
  6 50  1  6
  7 51  1  0
  7 52  1  0
  7 53  1  0
 15 54  1  0
 17 55  1  0
 18 56  1  0
 18 57  1  0
 19 58  1  0
 21 59  1  0
 24 60  1  0
 25 61  1  0
 26 62  1  0
 27 63  1  0
 30 64  1  0
 31 65  1  0
 31 66  1  0
 32 67  1  0
 32 68  1  0
 32 69  1  0
 33 70  1  0
 35 71  1  0
 36 72  1  0
 38 73  1  0
 39 74  1  0
 39 75  1  0
 39 76  1  0
 40 77  1  0
M  CHG  3   2   1   7   1  10  -1
M  END
>  <ScrubInfo>  (4) 
{"isomerGroup": 3, "isomerId": 0, "confId": 0, "nr_conformers:": 1, "nr_isomers:": 1}

$$$$
