REMARK  Name = 
REMARK  6 active torsions:
REMARK  status: ('A' for Active; 'I' for Inactive)
REMARK    1  A    between atoms: C_1  and  C_13
REMARK    2  A    between atoms: C_1  and  O_22
REMARK    3  A    between atoms: C_4  and  C_15
REMARK    4  A    between atoms: C_9  and  O_22
REMARK    5  A    between atoms: CA_11  and  C_12
REMARK    6  A    between atoms: C_12  and  O_20
REMARK                            x       y       z     vdW  Elec       q    Type
REMARK                         _______ _______ _______ _____ _____    ______ ____
ROOT
ATOM      1  C   UNL     1     120.296 106.168 104.097  0.00  0.00    +0.000 A 
ATOM      2  C   UNL     1     120.797 103.764 103.909  0.00  0.00    +0.000 A 
ATOM      3  C   UNL     1     121.455 105.036 105.945  0.00  0.00    +0.000 A 
ATOM      4  C   UNL     1     120.957 106.164 105.483  0.00  0.00    +0.000 A 
ATOM      5  C   UNL     1     120.220 105.069 103.368  0.00  0.00    +0.000 A 
ATOM      6  C   UNL     1     121.369 103.759 105.102  0.00  0.00    +0.000 A 
ATOM      7  H   UNL     1     119.877 107.106 103.703  0.00  0.00    +0.000 HD
ATOM      8  H   UNL     1     120.738 102.840 103.315  0.00  0.00    +0.000 HD
ATOM      9  H   UNL     1     121.013 107.087 106.079  0.00  0.00    +0.000 HD
ATOM     10  H   UNL     1     121.790 102.822 105.496  0.00  0.00    +0.000 HD
ENDROOT
BRANCH   5  11
ATOM     11  C   UNL     1     119.540 105.097 101.968  0.00  0.00    +0.000 A 
ATOM     12  C   UNL     1     118.307 105.134  99.466  0.00  0.00    +0.000 A 
ATOM     13  C   UNL     1     119.689 105.230  99.565  0.00  0.00    +0.000 A 
ATOM     14  C   UNL     1     120.297 105.215 100.816  0.00  0.00    +0.000 A 
ATOM     15  C   UNL     1     118.156 104.988 101.872  0.00  0.00    +0.000 A 
ATOM     16  C   UNL     1     117.540 105.017 100.622  0.00  0.00    +0.000 A 
ATOM     17  H   UNL     1     117.821 105.150  98.479  0.00  0.00    +0.000 HD
ATOM     18  H   UNL     1     120.302 105.318  98.656  0.00  0.00    +0.000 HD
ATOM     19  H   UNL     1     121.391 105.298 100.890  0.00  0.00    +0.000 HD
ATOM     20  H   UNL     1     117.548 104.879 102.782  0.00  0.00    +0.000 HD
ATOM     21  H   UNL     1     116.445 104.947 100.549  0.00  0.00    +0.000 HD
ENDBRANCH   5  11
BRANCH   3  22
ATOM     22  C   UNL     1     122.128 104.993 107.336  0.00  0.00    +0.000 C 
ATOM     23  O   UNL     1     121.467 104.869 108.307  0.00  0.00    +0.000 OA
BRANCH  22  24
ATOM     24  O   UNL     1     123.537 105.084 107.425  0.00  0.00    +0.000 OA
BRANCH  24  26
ATOM     25  C   UNL     1     125.401 106.476 107.818  0.00  0.00    +0.000 C 
ATOM     26  C   UNL     1     124.037 106.118 108.269  0.00  0.00    +0.000 C 
ATOM     27  C   UNL     1     123.151 107.355 108.162  0.00  0.00    +0.000 C 
ATOM     28  CA  UNL     1     125.329 107.939 107.473  0.00  0.00    +0.000 C 
ATOM     29  N   UNL     1     124.085 108.480 108.014  0.00  0.00    +0.000 NA
ATOM     30  H   UNL     1     126.131 106.305 108.623  0.00  0.00    +0.000 HD
ATOM     31  H   UNL     1     125.725 105.866 106.962  0.00  0.00    +0.000 HD
ATOM     32  H   UNL     1     124.048 105.765 109.311  0.00  0.00    +0.000 HD
ATOM     33  H   UNL     1     122.490 107.283 107.285  0.00  0.00    +0.000 HD
ATOM     34  H   UNL     1     122.498 107.473 109.039  0.00  0.00    +0.000 HD
ATOM     35  HA  UNL     1     126.204 108.455 107.894  0.00  0.00    +0.000 HD
ATOM     36  H   UNL     1     124.259 108.917 108.930  0.00  0.00    +0.000 HD
BRANCH  28  37
ATOM     37  C   UNL     1     125.309 108.122 105.963  0.00  0.00    +0.000 C 
ATOM     38  OXT UNL     1     126.369 107.992 105.306  0.00  0.00    +0.000 OA
BRANCH  37  39
ATOM     39  O   UNL     1     124.229 108.409 105.385  0.00  0.00    +0.000 OA
ATOM     40  H   UNL     1     124.210 108.529 104.403  0.00  0.00    +0.000 HD
ENDBRANCH  37  39
ENDBRANCH  28  37
ENDBRANCH  24  26
ENDBRANCH  22  24
ENDBRANCH   3  22
TORSDOF 6
