
     RDKit          3D

 40 42  0  0  0  0  0  0  0  0999 V2000
    5.4453    0.2226   -1.1899 C   0  0  2  0  0  0  0  0  0  0  0  0
    5.4574   -0.4128    0.2132 N   0  0  0  0  0  0  0  0  0  0  0  0
    4.0703   -0.7393    0.6022 C   0  0  0  0  0  0  0  0  0  0  0  0
    6.1883    1.5822   -1.1588 C   0  0  0  0  0  0  0  0  0  0  0  0
    3.9697    0.4201   -1.4834 C   0  0  0  0  0  0  0  0  0  0  0  0
    6.2916    2.2010   -2.2383 O   0  0  0  0  0  0  0  0  0  0  0  0
    6.5707    1.8338    0.0307 O   0  0  0  0  0  0  0  0  0  0  0  0
    3.2774   -0.6872   -0.7044 C   0  0  2  0  0  0  0  0  0  0  0  0
    1.8992   -0.3372   -0.5334 O   0  0  0  0  0  0  0  0  0  0  0  0
    1.1590   -1.2506    0.1436 C   0  0  0  0  0  0  0  0  0  0  0  0
   -0.2659   -0.8348    0.2232 C   0  0  0  0  0  0  0  0  0  0  0  0
    1.6065   -2.2732    0.6380 O   0  0  0  0  0  0  0  0  0  0  0  0
   -0.7368    0.3473   -0.3586 C   0  0  0  0  0  0  0  0  0  0  0  0
   -1.1599   -1.6642    0.9090 C   0  0  0  0  0  0  0  0  0  0  0  0
   -2.0893    0.6925   -0.2510 C   0  0  0  0  0  0  0  0  0  0  0  0
   -2.5105   -1.3136    1.0120 C   0  0  0  0  0  0  0  0  0  0  0  0
   -2.9985   -0.1300    0.4349 C   0  0  0  0  0  0  0  0  0  0  0  0
   -4.4199    0.2376    0.5449 C   0  0  0  0  0  0  0  0  0  0  0  0
   -5.4314   -0.6558    0.1539 C   0  0  0  0  0  0  0  0  0  0  0  0
   -4.8068    1.4929    1.0437 C   0  0  0  0  0  0  0  0  0  0  0  0
   -6.7809   -0.3072    0.2574 C   0  0  0  0  0  0  0  0  0  0  0  0
   -6.1559    1.8424    1.1487 C   0  0  0  0  0  0  0  0  0  0  0  0
   -7.1422    0.9419    0.7551 C   0  0  0  0  0  0  0  0  0  0  0  0
    5.9229   -0.4993   -1.8591 H   0  0  0  0  0  0  0  0  0  0  0  0
    5.8625    0.3853    0.7697 H   0  0  0  0  0  0  0  0  0  0  0  0
    6.1482   -1.1648    0.2749 H   0  0  0  0  0  0  0  0  0  0  0  0
    3.7371    0.0114    1.3262 H   0  0  0  0  0  0  0  0  0  0  0  0
    4.0749   -1.7270    1.0697 H   0  0  0  0  0  0  0  0  0  0  0  0
    3.6121    1.4070   -1.1613 H   0  0  0  0  0  0  0  0  0  0  0  0
    3.7536    0.3492   -2.5550 H   0  0  0  0  0  0  0  0  0  0  0  0
    3.3583   -1.6332   -1.2564 H   0  0  0  0  0  0  0  0  0  0  0  0
   -0.0714    1.0131   -0.9030 H   0  0  0  0  0  0  0  0  0  0  0  0
   -0.8145   -2.5877    1.3703 H   0  0  0  0  0  0  0  0  0  0  0  0
   -2.4355    1.6118   -0.7218 H   0  0  0  0  0  0  0  0  0  0  0  0
   -3.1837   -1.9704    1.5610 H   0  0  0  0  0  0  0  0  0  0  0  0
   -5.1729   -1.6330   -0.2491 H   0  0  0  0  0  0  0  0  0  0  0  0
   -4.0543    2.2090    1.3678 H   0  0  0  0  0  0  0  0  0  0  0  0
   -7.5484   -1.0111   -0.0541 H   0  0  0  0  0  0  0  0  0  0  0  0
   -6.4347    2.8175    1.5401 H   0  0  0  0  0  0  0  0  0  0  0  0
   -8.1915    1.2137    0.8358 H   0  0  0  0  0  0  0  0  0  0  0  0
  1  2  1  0
  2  3  1  0
  1  4  1  0
  1  5  1  0
  4  6  2  0
  4  7  1  0
  8  5  1  0
  3  8  1  0
  9  8  1  0
  9 10  1  0
 11 10  1  0
 12 10  2  0
 13 11  2  0
 14 11  1  0
 13 15  1  0
 14 16  2  0
 17 15  2  0
 17 16  1  0
 17 18  1  0
 19 18  2  0
 20 18  1  0
 19 21  1  0
 22 20  2  0
 21 23  2  0
 22 23  1  0
  1 24  1  6
  2 25  1  0
  2 26  1  0
  3 27  1  0
  3 28  1  0
  5 29  1  0
  5 30  1  0
  8 31  1  6
 13 32  1  0
 14 33  1  0
 15 34  1  0
 16 35  1  0
 19 36  1  0
 20 37  1  0
 21 38  1  0
 22 39  1  0
 23 40  1  0
M  CHG  2   2   1   7  -1
M  END
>  <ScrubInfo>  (1) 
{"isomerGroup": 0, "isomerId": 0, "confId": 0, "nr_conformers:": 1, "nr_isomers:": 1}

$$$$
