
     RDKit          3D

 23 25  0  0  0  0  0  0  0  0999 V2000
  122.1280  104.9930  107.3360 C   0  0  0  0  0  0  0  0  0  0  0  0
  120.2960  106.1680  104.0970 C   0  0  0  0  0  0  0  0  0  0  0  0
  120.7970  103.7640  103.9090 C   0  0  0  0  0  0  0  0  0  0  0  0
  119.5400  105.0970  101.9680 C   0  0  0  0  0  0  0  0  0  0  0  0
  118.3070  105.1340   99.4660 C   0  0  0  0  0  0  0  0  0  0  0  0
  119.6890  105.2300   99.5650 C   0  0  0  0  0  0  0  0  0  0  0  0
  120.2970  105.2150  100.8160 C   0  0  0  0  0  0  0  0  0  0  0  0
  125.4010  106.4760  107.8180 C   0  0  0  0  0  0  0  0  0  0  0  0
  124.0370  106.1180  108.2690 C   0  0  1  0  0  0  0  0  0  0  0  0
  123.1510  107.3550  108.1620 C   0  0  0  0  0  0  0  0  0  0  0  0
  125.3290  107.9390  107.4730 C   0  0  0  0  0  0  0  0  0  0  0  0
  125.3090  108.1220  105.9630 C   0  0  0  0  0  0  0  0  0  0  0  0
  121.4550  105.0360  105.9450 C   0  0  0  0  0  0  0  0  0  0  0  0
  120.9570  106.1640  105.4830 C   0  0  0  0  0  0  0  0  0  0  0  0
  120.2200  105.0690  103.3680 C   0  0  0  0  0  0  0  0  0  0  0  0
  121.3690  103.7590  105.1020 C   0  0  0  0  0  0  0  0  0  0  0  0
  118.1560  104.9880  101.8720 C   0  0  0  0  0  0  0  0  0  0  0  0
  117.5400  105.0170  100.6220 C   0  0  0  0  0  0  0  0  0  0  0  0
  124.0850  108.4800  108.0140 N   0  0  0  0  0  0  0  0  0  0  0  0
  124.2290  108.4090  105.3850 O   0  0  0  0  0  0  0  0  0  0  0  0
  126.3690  107.9920  105.3060 O   0  0  0  0  0  0  0  0  0  0  0  0
  123.5370  105.0840  107.4250 O   0  0  0  0  0  0  0  0  0  0  0  0
  121.4670  104.8690  108.3070 O   0  0  0  0  0  0  0  0  0  0  0  0
  6  5  2  0
  7  6  1  0
  7  4  2  0
  9  8  1  0
 10  9  1  0
 11  8  1  0
 12 11  2  0
 13  1  1  0
 14 13  1  0
 14  2  2  0
 15  4  1  0
 15  3  2  0
 15  2  1  0
 16 13  2  0
 16  3  1  0
 17  4  1  0
 18 17  2  0
 18  5  1  0
 19 11  1  0
 19 10  1  0
 20 12  1  0
 21 12  1  0
  9 22  1  6
 22  1  1  0
 23  1  2  0
M  END
$$$$

     RDKit          3D

 23 25  0  0  0  0  0  0  0  0999 V2000
  122.1280  104.9930  107.3360 C   0  0  0  0  0  0  0  0  0  0  0  0
  120.2960  106.1680  104.0970 C   0  0  0  0  0  0  0  0  0  0  0  0
  120.7970  103.7640  103.9090 C   0  0  0  0  0  0  0  0  0  0  0  0
  119.5400  105.0970  101.9680 C   0  0  0  0  0  0  0  0  0  0  0  0
  118.3070  105.1340   99.4660 C   0  0  0  0  0  0  0  0  0  0  0  0
  119.6890  105.2300   99.5650 C   0  0  0  0  0  0  0  0  0  0  0  0
  120.2970  105.2150  100.8160 C   0  0  0  0  0  0  0  0  0  0  0  0
  125.4010  106.4760  107.8180 C   0  0  0  0  0  0  0  0  0  0  0  0
  124.0370  106.1180  108.2690 C   0  0  1  0  0  0  0  0  0  0  0  0
  123.1510  107.3550  108.1620 C   0  0  0  0  0  0  0  0  0  0  0  0
  125.3290  107.9390  107.4730 C   0  0  0  0  0  0  0  0  0  0  0  0
  125.3090  108.1220  105.9630 C   0  0  0  0  0  0  0  0  0  0  0  0
  121.4550  105.0360  105.9450 C   0  0  0  0  0  0  0  0  0  0  0  0
  120.9570  106.1640  105.4830 C   0  0  0  0  0  0  0  0  0  0  0  0
  120.2200  105.0690  103.3680 C   0  0  0  0  0  0  0  0  0  0  0  0
  121.3690  103.7590  105.1020 C   0  0  0  0  0  0  0  0  0  0  0  0
  118.1560  104.9880  101.8720 C   0  0  0  0  0  0  0  0  0  0  0  0
  117.5400  105.0170  100.6220 C   0  0  0  0  0  0  0  0  0  0  0  0
  124.0850  108.4800  108.0140 N   0  0  0  0  0  0  0  0  0  0  0  0
  124.2290  108.4090  105.3850 O   0  0  0  0  0  0  0  0  0  0  0  0
  126.3690  107.9920  105.3060 O   0  0  0  0  0  0  0  0  0  0  0  0
  123.5370  105.0840  107.4250 O   0  0  0  0  0  0  0  0  0  0  0  0
  121.4670  104.8690  108.3070 O   0  0  0  0  0  0  0  0  0  0  0  0
  6  5  2  0
  7  6  1  0
  7  4  2  0
  9  8  1  0
 10  9  1  0
 11  8  1  0
 12 11  1  0
 13  1  1  0
 14 13  1  0
 14  2  2  0
 15  4  1  0
 15  3  2  0
 15  2  1  0
 16 13  2  0
 16  3  1  0
 17  4  1  0
 18 17  2  0
 18  5  1  0
 19 11  1  0
 19 10  1  0
 20 12  2  0
 21 12  1  0
  9 22  1  6
 22  1  1  0
 23  1  2  0
M  END
$$$$
