_i0
     RDKit          3D

 54 59  0  0  0  0  0  0  0  0999 V2000
   -2.9640   -0.2077   -1.8274 C   0  0  0  0  0  0  0  0  0  0  0  0
   -3.0763   -1.6849   -1.6625 N   0  0  0  0  0  0  0  0  0  0  0  0
   -3.5157    0.5771   -0.6560 C   0  0  2  0  0  0  0  0  0  0  0  0
   -2.9961    1.9658   -0.2837 C   0  0  1  0  0  0  0  0  0  0  0  0
   -2.7029    0.8037    0.6304 C   0  0  2  0  0  0  0  0  0  0  0  0
   -5.0462    0.2217   -0.3997 C   0  0  0  0  0  0  0  0  0  0  0  0
   -1.8423    2.6922   -0.9095 C   0  0  0  0  0  0  0  0  0  0  0  0
   -1.3094    0.2833    0.7990 C   0  0  0  0  0  0  0  0  0  0  0  0
   -5.3670   -1.0533   -0.2941 N   0  0  0  0  0  0  0  0  0  0  0  0
   -6.3271    1.3419   -0.3883 S   0  0  0  0  0  0  0  0  0  0  0  0
   -0.4838    1.9932   -0.8197 C   0  0  0  0  0  0  0  0  0  0  0  0
   -0.3153    1.3061    0.4691 N   0  0  0  0  0  0  0  0  0  0  0  0
   -6.7393   -1.1556   -0.0904 C   0  0  0  0  0  0  0  0  0  0  0  0
   -7.4207    0.0492   -0.1234 C   0  0  0  0  0  0  0  0  0  0  0  0
    0.9991    0.7426    0.5138 C   0  0  0  0  0  0  0  0  0  0  0  0
   -7.3376   -2.5023    0.1221 C   0  0  0  0  0  0  0  0  0  0  0  0
    2.0857    1.5917    0.8678 C   0  0  0  0  0  0  0  0  0  0  0  0
    1.1579   -0.5695    0.1819 N   0  0  0  0  0  0  0  0  0  0  0  0
    3.4048    1.2385    0.9292 N   0  0  0  0  0  0  0  0  0  0  0  0
    2.4615   -0.9565    0.2361 C   0  0  0  0  0  0  0  0  0  0  0  0
    3.5279   -0.0676    0.5953 C   0  0  0  0  0  0  0  0  0  0  0  0
    2.9224   -2.1824   -0.0290 N   0  0  0  0  0  0  0  0  0  0  0  0
    4.6826   -0.8046    0.5298 C   0  0  0  0  0  0  0  0  0  0  0  0
    4.2593   -2.0571    0.1480 N   0  0  0  0  0  0  0  0  0  0  0  0
    6.0808   -0.4542    0.7465 C   0  0  0  0  0  0  0  0  0  0  0  0
    6.7102   -0.9224    1.9113 C   0  0  0  0  0  0  0  0  0  0  0  0
    6.8106    0.3417   -0.1629 C   0  0  0  0  0  0  0  0  0  0  0  0
    8.0421   -0.6028    2.1755 C   0  0  0  0  0  0  0  0  0  0  0  0
    8.1490    0.6627    0.1156 C   0  0  0  0  0  0  0  0  0  0  0  0
    6.0653    0.8779   -1.6408 Cl  0  0  0  0  0  0  0  0  0  0  0  0
    8.7585    0.1907    1.2818 C   0  0  0  0  0  0  0  0  0  0  0  0
    9.1154    1.6278   -0.9474 Cl  0  0  0  0  0  0  0  0  0  0  0  0
   -1.9146   -0.0167   -2.0427 H   0  0  0  0  0  0  0  0  0  0  0  0
   -3.5353    0.0387   -2.7302 H   0  0  0  0  0  0  0  0  0  0  0  0
   -3.9894   -1.9013   -1.2146 H   0  0  0  0  0  0  0  0  0  0  0  0
   -3.0412   -2.1821   -2.5585 H   0  0  0  0  0  0  0  0  0  0  0  0
   -2.3449   -2.0675   -1.0531 H   0  0  0  0  0  0  0  0  0  0  0  0
   -3.7224    2.6932    0.0726 H   0  0  0  0  0  0  0  0  0  0  0  0
   -3.2309    0.7922    1.5808 H   0  0  0  0  0  0  0  0  0  0  0  0
   -1.7512    3.6573   -0.3914 H   0  0  0  0  0  0  0  0  0  0  0  0
   -2.0729    2.9279   -1.9557 H   0  0  0  0  0  0  0  0  0  0  0  0
   -1.1778   -0.0187    1.8467 H   0  0  0  0  0  0  0  0  0  0  0  0
   -1.2009   -0.6226    0.1947 H   0  0  0  0  0  0  0  0  0  0  0  0
   -0.3674    1.2869   -1.6497 H   0  0  0  0  0  0  0  0  0  0  0  0
    0.2923    2.7583   -0.9599 H   0  0  0  0  0  0  0  0  0  0  0  0
   -8.4813    0.2271   -0.0050 H   0  0  0  0  0  0  0  0  0  0  0  0
   -7.1371   -3.1432   -0.7427 H   0  0  0  0  0  0  0  0  0  0  0  0
   -8.4221   -2.4441    0.2603 H   0  0  0  0  0  0  0  0  0  0  0  0
   -6.9036   -2.9721    1.0108 H   0  0  0  0  0  0  0  0  0  0  0  0
    1.8920    2.6300    1.1282 H   0  0  0  0  0  0  0  0  0  0  0  0
    4.8403   -2.8731   -0.0219 H   0  0  0  0  0  0  0  0  0  0  0  0
    6.1619   -1.5279    2.6319 H   0  0  0  0  0  0  0  0  0  0  0  0
    8.5210   -0.9682    3.0825 H   0  0  0  0  0  0  0  0  0  0  0  0
    9.7960    0.4389    1.4984 H   0  0  0  0  0  0  0  0  0  0  0  0
  1  2  1  0
  3  1  1  6
  3  4  1  0
  3  5  1  0
  6  3  1  0
  4  5  1  0
  4  7  1  0
  8  5  1  0
  9  6  2  0
 10  6  1  0
 11  7  1  0
  8 12  1  0
  9 13  1  0
 10 14  1  0
 12 11  1  0
 12 15  1  0
 16 13  1  0
 14 13  2  0
 17 15  1  0
 18 15  2  0
 19 17  2  0
 18 20  1  0
 19 21  1  0
 20 22  2  0
 20 21  1  0
 23 21  2  0
 22 24  1  0
 23 24  1  0
 23 25  1  0
 25 26  2  0
 27 25  1  0
 26 28  1  0
 27 29  2  0
 30 27  1  0
 28 31  2  0
 31 29  1  0
 32 29  1  0
  1 33  1  0
  1 34  1  0
  2 35  1  0
  2 36  1  0
  2 37  1  0
  4 38  1  1
  5 39  1  1
  7 40  1  0
  7 41  1  0
  8 42  1  0
  8 43  1  0
 11 44  1  0
 11 45  1  0
 14 46  1  0
 16 47  1  0
 16 48  1  0
 16 49  1  0
 17 50  1  0
 24 51  1  0
 26 52  1  0
 28 53  1  0
 31 54  1  0
M  CHG  1   2   1
M  END
>  <ScrubInfo>  (1) 
{"isomerGroup": 0, "isomerId": 0, "confId": 0, "nr_conformers:": 1, "nr_isomers:": 4}

$$$$
_i1
     RDKit          3D

 54 59  0  0  0  0  0  0  0  0999 V2000
   -2.1748   -2.8155   -1.5685 N   0  0  0  0  0  0  0  0  0  0  0  0
   -3.4010   -3.0452   -2.0795 N   0  0  0  0  0  0  0  0  0  0  0  0
   -4.0629   -1.8897   -1.8711 C   0  0  0  0  0  0  0  0  0  0  0  0
   -5.4469   -1.7177   -2.2984 C   0  0  0  0  0  0  0  0  0  0  0  0
   -6.4256   -2.5325   -1.7033 C   0  0  0  0  0  0  0  0  0  0  0  0
   -7.7712   -2.3912   -2.0407 C   0  0  0  0  0  0  0  0  0  0  0  0
   -8.1495   -1.4432   -2.9872 C   0  0  0  0  0  0  0  0  0  0  0  0
   -7.1845   -0.6373   -3.6045 C   0  0  0  0  0  0  0  0  0  0  0  0
   -7.7432    0.4862   -4.7998 Cl  0  0  0  0  0  0  0  0  0  0  0  0
   -5.8275   -0.7638   -3.2626 C   0  0  0  0  0  0  0  0  0  0  0  0
   -4.6303    0.2198   -4.0589 Cl  0  0  0  0  0  0  0  0  0  0  0  0
   -3.2521   -0.9529   -1.1721 C   0  0  0  0  0  0  0  0  0  0  0  0
   -3.4798    0.2978   -0.6984 N   0  0  0  0  0  0  0  0  0  0  0  0
   -2.3780    0.8251   -0.1047 C   0  0  0  0  0  0  0  0  0  0  0  0
   -1.1171    0.2034    0.0169 C   0  0  0  0  0  0  0  0  0  0  0  0
   -0.0404    0.9039    0.6124 N   0  0  0  0  0  0  0  0  0  0  0  0
    0.2710    2.1864   -0.0327 C   0  0  0  0  0  0  0  0  0  0  0  0
    1.0307    1.9949   -1.3499 C   0  0  0  0  0  0  0  0  0  0  0  0
    2.0353    0.8762   -1.3490 C   0  0  2  0  0  0  0  0  0  0  0  0
    2.0555   -0.1030   -0.1944 C   0  0  2  0  0  0  0  0  0  0  0  0
    1.1128    0.0762    0.9638 C   0  0  0  0  0  0  0  0  0  0  0  0
    3.2823    0.7854   -0.4653 C   0  0  2  0  0  0  0  0  0  0  0  0
    3.6498    1.9606    0.4244 C   0  0  0  0  0  0  0  0  0  0  0  0
    4.8341    1.7318    1.2977 N   0  0  0  0  0  0  0  0  0  0  0  0
    4.5722    0.0964   -1.1429 C   0  0  0  0  0  0  0  0  0  0  0  0
    5.7632    0.6105   -0.8833 N   0  0  0  0  0  0  0  0  0  0  0  0
    6.7345   -0.0865   -1.5943 C   0  0  0  0  0  0  0  0  0  0  0  0
    8.1516    0.3598   -1.5220 C   0  0  0  0  0  0  0  0  0  0  0  0
    6.2535   -1.1666   -2.3167 C   0  0  0  0  0  0  0  0  0  0  0  0
    4.5513   -1.2944   -2.1391 S   0  0  0  0  0  0  0  0  0  0  0  0
   -0.9239   -1.0616   -0.4256 N   0  0  0  0  0  0  0  0  0  0  0  0
   -2.0266   -1.5786   -1.0112 C   0  0  0  0  0  0  0  0  0  0  0  0
   -1.4797   -3.5495   -1.6189 H   0  0  0  0  0  0  0  0  0  0  0  0
   -6.1369   -3.2823   -0.9657 H   0  0  0  0  0  0  0  0  0  0  0  0
   -8.5224   -3.0202   -1.5645 H   0  0  0  0  0  0  0  0  0  0  0  0
   -9.2003   -1.3410   -3.2513 H   0  0  0  0  0  0  0  0  0  0  0  0
   -2.5463    1.8141    0.3106 H   0  0  0  0  0  0  0  0  0  0  0  0
   -0.6176    2.8048   -0.2049 H   0  0  0  0  0  0  0  0  0  0  0  0
    0.8791    2.7771    0.6599 H   0  0  0  0  0  0  0  0  0  0  0  0
    1.5163    2.9332   -1.6425 H   0  0  0  0  0  0  0  0  0  0  0  0
    0.2944    1.7742   -2.1350 H   0  0  0  0  0  0  0  0  0  0  0  0
    2.1002    0.4565   -2.3514 H   0  0  0  0  0  0  0  0  0  0  0  0
    2.0946   -1.1544   -0.4652 H   0  0  0  0  0  0  0  0  0  0  0  0
    1.6386    0.5493    1.8022 H   0  0  0  0  0  0  0  0  0  0  0  0
    0.8036   -0.9024    1.3597 H   0  0  0  0  0  0  0  0  0  0  0  0
    2.8525    2.2583    1.1060 H   0  0  0  0  0  0  0  0  0  0  0  0
    3.9040    2.8256   -0.2016 H   0  0  0  0  0  0  0  0  0  0  0  0
    4.6920    0.9701    1.9673 H   0  0  0  0  0  0  0  0  0  0  0  0
    5.6169    1.4337    0.6750 H   0  0  0  0  0  0  0  0  0  0  0  0
    5.1409    2.5773    1.7866 H   0  0  0  0  0  0  0  0  0  0  0  0
    8.2140    1.3968   -1.1707 H   0  0  0  0  0  0  0  0  0  0  0  0
    8.7180   -0.2748   -0.8304 H   0  0  0  0  0  0  0  0  0  0  0  0
    8.6266    0.3154   -2.5072 H   0  0  0  0  0  0  0  0  0  0  0  0
    6.8082   -1.8671   -2.9293 H   0  0  0  0  0  0  0  0  0  0  0  0
  1  2  1  0
  2  3  2  0
  3  4  1  0
  4  5  2  0
  5  6  1  0
  6  7  2  0
  7  8  1  0
  8  9  1  0
  8 10  2  0
 10 11  1  0
  3 12  1  0
 12 13  2  0
 13 14  1  0
 14 15  2  0
 15 16  1  0
 16 17  1  0
 17 18  1  0
 18 19  1  0
 19 20  1  0
 20 21  1  0
 20 22  1  0
 22 23  1  1
 23 24  1  0
 22 25  1  0
 25 26  2  0
 26 27  1  0
 27 28  1  0
 27 29  2  0
 29 30  1  0
 15 31  1  0
 31 32  2  0
 32  1  1  0
 10  4  1  0
 32 12  1  0
 21 16  1  0
 30 25  1  0
 22 19  1  0
  1 33  1  0
  5 34  1  0
  6 35  1  0
  7 36  1  0
 14 37  1  0
 17 38  1  0
 17 39  1  0
 18 40  1  0
 18 41  1  0
 19 42  1  6
 20 43  1  6
 21 44  1  0
 21 45  1  0
 23 46  1  0
 23 47  1  0
 24 48  1  0
 24 49  1  0
 24 50  1  0
 28 51  1  0
 28 52  1  0
 28 53  1  0
 29 54  1  0
M  CHG  1  24   1
M  END
>  <ScrubInfo>  (2) 
{"isomerGroup": 0, "isomerId": 1, "confId": 0, "nr_conformers:": 1, "nr_isomers:": 4}

$$$$
_i2
     RDKit          3D

 54 59  0  0  0  0  0  0  0  0999 V2000
    2.0227    1.6512    1.2226 N   0  0  0  0  0  0  0  0  0  0  0  0
    1.2820    0.7762    0.4427 C   0  0  0  0  0  0  0  0  0  0  0  0
   -0.1160    0.8931    0.4026 N   0  0  0  0  0  0  0  0  0  0  0  0
   -0.7327    2.2264    0.2950 C   0  0  0  0  0  0  0  0  0  0  0  0
   -1.9734    2.3431    1.1786 C   0  0  0  0  0  0  0  0  0  0  0  0
   -2.8161    1.1062    1.2734 C   0  0  2  0  0  0  0  0  0  0  0  0
   -2.2934   -0.1833    0.6873 C   0  0  2  0  0  0  0  0  0  0  0  0
   -0.9771   -0.2116   -0.0317 C   0  0  0  0  0  0  0  0  0  0  0  0
   -3.5797    0.4460    0.1264 C   0  0  2  0  0  0  0  0  0  0  0  0
   -3.6373    1.0696   -1.2509 C   0  0  0  0  0  0  0  0  0  0  0  0
   -3.9423    0.0965   -2.3361 N   0  0  0  0  0  0  0  0  0  0  0  0
   -4.9168   -0.3669    0.4595 C   0  0  0  0  0  0  0  0  0  0  0  0
   -5.4147   -1.1416   -0.4857 N   0  0  0  0  0  0  0  0  0  0  0  0
   -6.5712   -1.7519   -0.0089 C   0  0  0  0  0  0  0  0  0  0  0  0
   -7.2909   -2.7206   -0.8785 C   0  0  0  0  0  0  0  0  0  0  0  0
   -6.9344   -1.3808    1.2731 C   0  0  0  0  0  0  0  0  0  0  0  0
   -5.8112   -0.2518    1.9034 S   0  0  0  0  0  0  0  0  0  0  0  0
    1.9839   -0.1695   -0.2533 C   0  0  0  0  0  0  0  0  0  0  0  0
    3.3650   -0.3430   -0.2646 N   0  0  0  0  0  0  0  0  0  0  0  0
    4.0091    0.4920    0.4909 C   0  0  0  0  0  0  0  0  0  0  0  0
    5.4400    0.6329    0.7654 C   0  0  0  0  0  0  0  0  0  0  0  0
    6.4912   -0.1884    0.1795 C   0  0  0  0  0  0  0  0  0  0  0  0
    6.3635   -1.5815    0.2894 C   0  0  0  0  0  0  0  0  0  0  0  0
    7.3549   -2.4159   -0.2219 C   0  0  0  0  0  0  0  0  0  0  0  0
    8.4717   -1.8622   -0.8449 C   0  0  0  0  0  0  0  0  0  0  0  0
    8.5985   -0.4730   -0.9663 C   0  0  0  0  0  0  0  0  0  0  0  0
   10.0079    0.1194   -1.7772 Cl  0  0  0  0  0  0  0  0  0  0  0  0
    7.6067    0.3789   -0.4556 C   0  0  0  0  0  0  0  0  0  0  0  0
    7.7264    2.0951   -0.6765 Cl  0  0  0  0  0  0  0  0  0  0  0  0
    5.5952    1.5961    1.6321 N   0  0  0  0  0  0  0  0  0  0  0  0
    4.2896    2.1645    1.9767 N   0  0  0  0  0  0  0  0  0  0  0  0
    3.3751    1.5442    1.3088 C   0  0  0  0  0  0  0  0  0  0  0  0
    1.5359    2.2320    1.8864 H   0  0  0  0  0  0  0  0  0  0  0  0
   -0.0395    3.0306    0.5688 H   0  0  0  0  0  0  0  0  0  0  0  0
   -0.9830    2.4129   -0.7543 H   0  0  0  0  0  0  0  0  0  0  0  0
   -2.5870    3.1907    0.8535 H   0  0  0  0  0  0  0  0  0  0  0  0
   -1.6339    2.5831    2.1950 H   0  0  0  0  0  0  0  0  0  0  0  0
   -3.2430    1.0458    2.2718 H   0  0  0  0  0  0  0  0  0  0  0  0
   -2.3916   -1.0640    1.3192 H   0  0  0  0  0  0  0  0  0  0  0  0
   -0.5085   -1.1765    0.1979 H   0  0  0  0  0  0  0  0  0  0  0  0
   -1.1144   -0.1772   -1.1180 H   0  0  0  0  0  0  0  0  0  0  0  0
   -4.4400    1.8145   -1.2814 H   0  0  0  0  0  0  0  0  0  0  0  0
   -2.7150    1.5622   -1.5536 H   0  0  0  0  0  0  0  0  0  0  0  0
   -4.2147    0.5474   -3.2156 H   0  0  0  0  0  0  0  0  0  0  0  0
   -3.1705   -0.5541   -2.5126 H   0  0  0  0  0  0  0  0  0  0  0  0
   -4.7408   -0.4944   -2.0215 H   0  0  0  0  0  0  0  0  0  0  0  0
   -7.2626   -2.3914   -1.9219 H   0  0  0  0  0  0  0  0  0  0  0  0
   -6.8189   -3.7058   -0.8132 H   0  0  0  0  0  0  0  0  0  0  0  0
   -8.3398   -2.8175   -0.5815 H   0  0  0  0  0  0  0  0  0  0  0  0
   -7.7844   -1.7114    1.8556 H   0  0  0  0  0  0  0  0  0  0  0  0
    1.4669   -0.8740   -0.8964 H   0  0  0  0  0  0  0  0  0  0  0  0
    5.5021   -2.0262    0.7850 H   0  0  0  0  0  0  0  0  0  0  0  0
    7.2622   -3.4964   -0.1310 H   0  0  0  0  0  0  0  0  0  0  0  0
    9.2441   -2.5195   -1.2403 H   0  0  0  0  0  0  0  0  0  0  0  0
  1  2  1  0
  2  3  1  0
  3  4  1  0
  4  5  1  0
  5  6  1  0
  6  7  1  0
  7  8  1  0
  7  9  1  0
  9 10  1  6
 10 11  1  0
  9 12  1  0
 12 13  2  0
 13 14  1  0
 14 15  1  0
 14 16  2  0
 16 17  1  0
  2 18  2  0
 18 19  1  0
 19 20  2  0
 20 21  1  0
 21 22  1  0
 22 23  2  0
 23 24  1  0
 24 25  2  0
 25 26  1  0
 26 27  1  0
 26 28  2  0
 28 29  1  0
 21 30  2  0
 30 31  1  0
 31 32  2  0
 32  1  1  0
  8  3  1  0
 17 12  1  0
 32 20  1  0
  9  6  1  0
 28 22  1  0
  1 33  1  0
  4 34  1  0
  4 35  1  0
  5 36  1  0
  5 37  1  0
  6 38  1  1
  7 39  1  1
  8 40  1  0
  8 41  1  0
 10 42  1  0
 10 43  1  0
 11 44  1  0
 11 45  1  0
 11 46  1  0
 15 47  1  0
 15 48  1  0
 15 49  1  0
 16 50  1  0
 18 51  1  0
 23 52  1  0
 24 53  1  0
 25 54  1  0
M  CHG  1  11   1
M  END
>  <ScrubInfo>  (3) 
{"isomerGroup": 0, "isomerId": 2, "confId": 0, "nr_conformers:": 1, "nr_isomers:": 4}

$$$$
_i3
     RDKit          3D

 54 59  0  0  0  0  0  0  0  0999 V2000
    3.3394   -0.4703   -1.1004 N   0  0  0  0  0  0  0  0  0  0  0  0
    2.1302   -0.3317   -1.7511 C   0  0  0  0  0  0  0  0  0  0  0  0
    1.0030    0.1678   -1.1696 C   0  0  0  0  0  0  0  0  0  0  0  0
   -0.1938    0.2864   -1.8788 N   0  0  0  0  0  0  0  0  0  0  0  0
   -0.6264   -0.6275   -2.9404 C   0  0  0  0  0  0  0  0  0  0  0  0
   -2.0027   -1.1891   -2.5568 C   0  0  0  0  0  0  0  0  0  0  0  0
   -2.9766   -0.1052   -2.1767 C   0  0  2  0  0  0  0  0  0  0  0  0
   -2.4307    1.2687   -1.8457 C   0  0  2  0  0  0  0  0  0  0  0  0
   -0.9531    1.5401   -1.8227 C   0  0  0  0  0  0  0  0  0  0  0  0
   -3.1187    0.4587   -0.7505 C   0  0  2  0  0  0  0  0  0  0  0  0
   -2.2932   -0.0819    0.4084 C   0  0  0  0  0  0  0  0  0  0  0  0
   -2.9831   -1.1317    1.2067 N   0  0  0  0  0  0  0  0  0  0  0  0
   -4.6008    0.8822   -0.3103 C   0  0  0  0  0  0  0  0  0  0  0  0
   -5.1911    0.1868    0.6445 N   0  0  0  0  0  0  0  0  0  0  0  0
   -6.4578    0.7132    0.8802 C   0  0  0  0  0  0  0  0  0  0  0  0
   -7.3301    0.0726    1.9011 C   0  0  0  0  0  0  0  0  0  0  0  0
   -6.7837    1.8078    0.1006 C   0  0  0  0  0  0  0  0  0  0  0  0
   -5.4859    2.1948   -0.9465 S   0  0  0  0  0  0  0  0  0  0  0  0
    1.0237    0.5811    0.1698 N   0  0  0  0  0  0  0  0  0  0  0  0
    2.1726    0.4902    0.7678 C   0  0  0  0  0  0  0  0  0  0  0  0
    2.4067    0.8542    2.0722 N   0  0  0  0  0  0  0  0  0  0  0  0
    3.6318    0.6646    2.3108 N   0  0  0  0  0  0  0  0  0  0  0  0
    4.2527    0.1678    1.1910 C   0  0  0  0  0  0  0  0  0  0  0  0
    5.6804   -0.1788    1.1939 C   0  0  0  0  0  0  0  0  0  0  0  0
    6.1136   -1.1467    2.1201 C   0  0  0  0  0  0  0  0  0  0  0  0
    7.4511   -1.5423    2.1714 C   0  0  0  0  0  0  0  0  0  0  0  0
    8.3774   -0.9692    1.3028 C   0  0  0  0  0  0  0  0  0  0  0  0
    7.9722    0.0065    0.3870 C   0  0  0  0  0  0  0  0  0  0  0  0
    9.1893    0.6726   -0.6487 Cl  0  0  0  0  0  0  0  0  0  0  0  0
    6.6265    0.4087    0.3266 C   0  0  0  0  0  0  0  0  0  0  0  0
    6.1363    1.6455   -0.7973 Cl  0  0  0  0  0  0  0  0  0  0  0  0
    3.4198   -0.0222    0.1745 C   0  0  0  0  0  0  0  0  0  0  0  0
    4.1837   -0.6570   -1.6272 H   0  0  0  0  0  0  0  0  0  0  0  0
    2.1681   -0.6267   -2.7941 H   0  0  0  0  0  0  0  0  0  0  0  0
   -0.6809   -0.0887   -3.8951 H   0  0  0  0  0  0  0  0  0  0  0  0
    0.0635   -1.4693   -3.0775 H   0  0  0  0  0  0  0  0  0  0  0  0
   -2.4009   -1.7586   -3.4059 H   0  0  0  0  0  0  0  0  0  0  0  0
   -1.9021   -1.9011   -1.7288 H   0  0  0  0  0  0  0  0  0  0  0  0
   -3.8660   -0.1438   -2.7988 H   0  0  0  0  0  0  0  0  0  0  0  0
   -2.9465    2.1206   -2.2766 H   0  0  0  0  0  0  0  0  0  0  0  0
   -0.6814    2.1566   -2.6890 H   0  0  0  0  0  0  0  0  0  0  0  0
   -0.7178    2.1287   -0.9287 H   0  0  0  0  0  0  0  0  0  0  0  0
   -2.0702    0.7317    1.1077 H   0  0  0  0  0  0  0  0  0  0  0  0
   -1.3605   -0.5536    0.1117 H   0  0  0  0  0  0  0  0  0  0  0  0
   -2.5265   -1.2869    2.1103 H   0  0  0  0  0  0  0  0  0  0  0  0
   -3.9613   -0.8198    1.3745 H   0  0  0  0  0  0  0  0  0  0  0  0
   -3.0384   -2.0155    0.6912 H   0  0  0  0  0  0  0  0  0  0  0  0
   -6.7548   -0.1662    2.8022 H   0  0  0  0  0  0  0  0  0  0  0  0
   -7.7511   -0.8564    1.5036 H   0  0  0  0  0  0  0  0  0  0  0  0
   -8.1554    0.7310    2.1891 H   0  0  0  0  0  0  0  0  0  0  0  0
   -7.6996    2.3849    0.0969 H   0  0  0  0  0  0  0  0  0  0  0  0
    5.4068   -1.6059    2.8127 H   0  0  0  0  0  0  0  0  0  0  0  0
    7.7721   -2.2963    2.8902 H   0  0  0  0  0  0  0  0  0  0  0  0
    9.4198   -1.2813    1.3501 H   0  0  0  0  0  0  0  0  0  0  0  0
  1  2  1  0
  2  3  2  0
  3  4  1  0
  4  5  1  0
  5  6  1  0
  6  7  1  0
  7  8  1  0
  8  9  1  0
  8 10  1  0
 10 11  1  1
 11 12  1  0
 10 13  1  0
 13 14  2  0
 14 15  1  0
 15 16  1  0
 15 17  2  0
 17 18  1  0
  3 19  1  0
 19 20  2  0
 20 21  1  0
 21 22  2  0
 22 23  1  0
 23 24  1  0
 24 25  2  0
 25 26  1  0
 26 27  2  0
 27 28  1  0
 28 29  1  0
 28 30  2  0
 30 31  1  0
 23 32  2  0
 32  1  1  0
  9  4  1  0
 18 13  1  0
 32 20  1  0
 10  7  1  0
 30 24  1  0
  1 33  1  0
  2 34  1  0
  5 35  1  0
  5 36  1  0
  6 37  1  0
  6 38  1  0
  7 39  1  6
  8 40  1  6
  9 41  1  0
  9 42  1  0
 11 43  1  0
 11 44  1  0
 12 45  1  0
 12 46  1  0
 12 47  1  0
 16 48  1  0
 16 49  1  0
 16 50  1  0
 17 51  1  0
 25 52  1  0
 26 53  1  0
 27 54  1  0
M  CHG  1  12   1
M  END
>  <ScrubInfo>  (4) 
{"isomerGroup": 0, "isomerId": 3, "confId": 0, "nr_conformers:": 1, "nr_isomers:": 4}

$$$$
