REMARK  Name = 
REMARK  5 active torsions:
REMARK  status: ('A' for Active; 'I' for Inactive)
REMARK    1  A    between atoms: C_5  and  C_19
REMARK    2  A    between atoms: C_14  and  C_15
REMARK    3  A    between atoms: C_27  and  C_28
REMARK    4  A    between atoms: C_27  and  C_30
REMARK    5  A    between atoms: C_28  and  N_29
REMARK                            x       y       z     vdW  Elec       q    Type
REMARK                         _______ _______ _______ _____ _____    ______ ____
ROOT
ATOM      1  N   UNL     1      20.976 -22.417  29.733  0.00  0.00    +0.000 N 
ATOM      2  C   UNL     1      19.357 -24.384  25.964  0.00  0.00    +0.000 A 
ATOM      3  C   UNL     1      20.703 -24.876  26.002  0.00  0.00    +0.000 A 
ATOM      4  C   UNL     1      21.145 -23.702  27.941  0.00  0.00    +0.000 A 
ATOM      5  C   UNL     1      16.160 -24.550  23.838  0.00  0.00    +0.000 C 
ATOM      6  C   UNL     1      17.568 -26.759  24.013  0.00  0.00    +0.000 C 
ATOM      7  C   UNL     1      18.710 -25.768  23.920  0.00  0.00    +0.000 C 
ATOM      8  C   UNL     1      21.836 -23.166  29.102  0.00  0.00    +0.000 A 
ATOM      9  N   UNL     1      19.748 -22.411  29.066  0.00  0.00    +0.000 NA
ATOM     10  C   UNL     1      19.823 -23.197  27.955  0.00  0.00    +0.000 A 
ATOM     11  N   UNL     1      18.975 -23.559  26.970  0.00  0.00    +0.000 NA
ATOM     12  N   UNL     1      21.537 -24.521  26.961  0.00  0.00    +0.000 NA
ATOM     13  N   UNL     1      18.432 -24.728  24.951  0.00  0.00    +0.000 N 
ATOM     14  C   UNL     1      17.300 -23.825  24.585  0.00  0.00    +0.000 C 
ATOM     15  C   UNL     1      16.308 -26.041  23.532  0.00  0.00    +0.000 C 
ATOM     16  C   UNL     1      15.206 -25.566  24.504  0.00  0.00    +0.000 C 
ATOM     17  H   UNL     1      21.174 -21.901  30.602  0.00  0.00    +0.000 HD
ATOM     18  H   UNL     1      21.048 -25.564  25.216  0.00  0.00    +0.000 HD
ATOM     19  H   UNL     1      15.987 -23.625  23.269  0.00  0.00    +0.000 HD
ATOM     20  H   UNL     1      17.772 -27.631  23.374  0.00  0.00    +0.000 HD
ATOM     21  H   UNL     1      17.444 -27.117  25.046  0.00  0.00    +0.000 HD
ATOM     22  H   UNL     1      19.668 -26.267  24.128  0.00  0.00    +0.000 HD
ATOM     23  H   UNL     1      18.784 -25.330  22.914  0.00  0.00    +0.000 HD
ATOM     24  H   UNL     1      17.687 -23.024  23.939  0.00  0.00    +0.000 HD
ATOM     25  H   UNL     1      16.879 -23.433  25.522  0.00  0.00    +0.000 HD
ATOM     26  H   UNL     1      16.297 -26.678  22.635  0.00  0.00    +0.000 HD
ENDROOT
BRANCH   8  31
ATOM     27  C   UNL     1      25.058 -24.140  30.852  0.00  0.00    +0.000 A 
ATOM     28  C   UNL     1      25.996 -23.974  29.834  0.00  0.00    +0.000 A 
ATOM     29  C   UNL     1      25.558 -23.544  28.586  0.00  0.00    +0.000 A 
ATOM     30  C   UNL     1      24.203 -23.286  28.373  0.00  0.00    +0.000 A 
ATOM     31  C   UNL     1      23.256 -23.450  29.404  0.00  0.00    +0.000 A 
ATOM     32  C   UNL     1      23.699 -23.890  30.654  0.00  0.00    +0.000 A 
ATOM     33 CL   UNL     1      25.582 -24.681  32.396  0.00  0.00    +0.000 Cl
ATOM     34 CL   UNL     1      22.580 -24.101  31.956  0.00  0.00    +0.000 Cl
ATOM     35  H   UNL     1      27.062 -24.179  30.014  0.00  0.00    +0.000 HD
ATOM     36  H   UNL     1      26.279 -23.407  27.767  0.00  0.00    +0.000 HD
ATOM     37  H   UNL     1      23.868 -22.948  27.381  0.00  0.00    +0.000 HD
ENDBRANCH   8  31
BRANCH  16  40
ATOM     38  C   UNL     1      11.629 -26.286  23.962  0.00  0.00    +0.000 A 
ATOM     39  C   UNL     1      11.692 -25.962  22.674  0.00  0.00    +0.000 A 
ATOM     40  C   UNL     1      13.803 -25.764  23.952  0.00  0.00    +0.000 A 
ATOM     41  N   UNL     1      12.767 -26.171  24.619  0.00  0.00    +0.000 NA
ATOM     42  S   UNL     1      13.345 -25.489  22.324  0.00  0.00    +0.000 S 
ATOM     43  H   UNL     1      10.858 -25.986  21.957  0.00  0.00    +0.000 HD
BRANCH  38  44
ATOM     44  C   UNL     1      10.340 -26.732  24.587  0.00  0.00    +0.000 C 
ATOM     45  H   UNL     1      10.433 -26.700  25.683  0.00  0.00    +0.000 HD
ATOM     46  H   UNL     1       9.527 -26.063  24.268  0.00  0.00    +0.000 HD
ATOM     47  H   UNL     1      10.114 -27.760  24.268  0.00  0.00    +0.000 HD
ENDBRANCH  38  44
ENDBRANCH  16  40
BRANCH  16  48
ATOM     48  C   UNL     1      15.306 -25.798  26.036  0.00  0.00    +0.000 C 
ATOM     49  H   UNL     1      16.288 -25.445  26.383  0.00  0.00    +0.000 HD
ATOM     50  H   UNL     1      14.485 -25.242  26.513  0.00  0.00    +0.000 HD
BRANCH  48  51
ATOM     51  N   UNL     1      15.158 -27.219  26.402  0.00  0.00    +0.000 NA
ATOM     52  H   UNL     1      15.149 -27.310  27.428  0.00  0.00    +0.000 HD
ATOM     53  H   UNL     1      14.275 -27.582  26.017  0.00  0.00    +0.000 HD
ENDBRANCH  48  51
ENDBRANCH  16  48
TORSDOF 5
