U70
  CCTOOLS-0919241037

 53 58  0  0  1  0  0  0  0  0999 V2000
    6.7570   -0.2730    0.7140 C   0  0  0  0  0
    7.3330    0.7750    1.4110 C   0  0  0  0  0
    6.7140    2.0120    1.4510 C   0  0  0  0  0
    5.5170    2.2100    0.7960 C   0  0  0  0  0
    4.9280    1.1580    0.0900 C   0  0  0  0  0
    5.5600   -0.0880    0.0480 C   0  0  0  0  0
    3.4350    2.1820   -1.6630 N   0  0  0  0  0
   -0.1560   -0.0520   -0.2910 C   0  0  0  0  0
    0.7870   -0.5450    0.6300 C   0  0  0  0  0
    2.4310    0.7430   -0.3110 C   0  0  0  0  0
   -3.7200   -0.3860   -1.1990 C   0  0  0  0  0
   -2.8770   -2.4340    0.2330 C   0  0  0  0  0
   -1.5300   -1.9660   -0.3210 C   0  0  0  0  0
   -7.7640    1.1230    0.5690 C   0  0  0  0  0
   -8.5190    2.2810    1.1710 C   0  0  0  0  0
   -8.3640    0.1510   -0.1230 C   0  0  0  0  0
    7.5420   -1.8210    0.6700 CL  0  0  0  0  0
    4.8380   -1.4020   -0.8270 CL  0  0  0  0  0
    3.6470    1.3630   -0.6130 C   0  0  0  0  0
    2.0940    2.1160   -2.0550 N   0  0  0  0  0
    1.4520    1.2650   -1.2760 C   0  0  0  0  0
    0.1820    0.8280   -1.2110 N   0  0  0  0  0
    2.0350   -0.1500    0.6040 N   0  0  0  0  0
   -1.4670   -0.4990   -0.2260 N   0  0  0  0  0
   -2.2840    0.1160   -1.2790 C   0  0  0  0  0
   -4.0110   -1.7000   -0.4860 C   0  0  0  0  0
   -4.4510   -0.3670    0.1370 C   0  0  0  0  0
   -3.6770    0.1320    1.3590 C   0  0  0  0  0
   -4.5010   -0.0410    2.5640 N   0  0  0  0  0
   -5.9230   -0.0430    0.1210 C   0  0  0  0  0
   -6.4570    0.9900    0.6790 N   0  0  0  0  0
   -7.1250   -0.9900   -0.6410 S   0  0  0  0  0
    8.2710    0.6260    1.9270 H   0  0  0  0  0
    7.1700    2.8250    1.9970 H   0  0  0  0  0
    5.0350    3.1760    0.8300 H   0  0  0  0  0
    4.1110    2.7380   -2.0810 H   0  0  0  0  0
    0.4760   -1.2660    1.3710 H   0  0  0  0  0
   -4.3240   -0.1830   -2.0830 H   0  0  0  0  0
   -2.9810   -3.5070    0.0750 H   0  0  0  0  0
   -2.9240   -2.2180    1.3000 H   0  0  0  0  0
   -0.7210   -2.4050    0.2630 H   0  0  0  0  0
   -1.4380   -2.2690   -1.3640 H   0  0  0  0  0
   -8.5740    3.0940    0.4470 H   0  0  0  0  0
   -9.5260    1.9600    1.4340 H   0  0  0  0  0
   -8.0020    2.6260    2.0660 H   0  0  0  0  0
   -9.4210    0.0770   -0.3290 H   0  0  0  0  0
   -1.8670   -0.1380   -2.2530 H   0  0  0  0  0
   -2.2740    1.1990   -1.1570 H   0  0  0  0  0
   -4.7910   -2.3370   -0.9040 H   0  0  0  0  0
   -2.7550   -0.4400    1.4640 H   0  0  0  0  0
   -3.4380    1.1880    1.2320 H   0  0  0  0  0
   -4.6600   -1.0180    2.7550 H   0  0  0  0  0
   -4.0810    0.4190    3.3580 H   0  0  0  0  0
  1 17  1  0  0  0
  2  1  2  0  0  0
  2 33  1  0  0  0
  3  2  1  0  0  0
  3 34  1  0  0  0
  4  3  2  0  0  0
  4  5  1  0  0  0
  4 35  1  0  0  0
  5  6  2  0  0  0
  6  1  1  0  0  0
  6 18  1  0  0  0
  7 36  1  0  0  0
  8  9  1  0  0  0
  8 22  2  0  0  0
  9 23  2  0  0  0
  9 37  1  0  0  0
 10 21  1  0  0  0
 10 19  2  0  0  0
 11 27  1  0  0  0
 11 25  1  0  0  0
 11 38  1  0  0  0
 12 39  1  0  0  0
 12 40  1  0  0  0
 13 12  1  0  0  0
 13 24  1  0  0  0
 13 41  1  0  0  0
 13 42  1  0  0  0
 14 15  1  0  0  0
 14 31  1  0  0  0
 15 43  1  0  0  0
 15 44  1  0  0  0
 15 45  1  0  0  0
 16 14  2  0  0  0
 16 46  1  0  0  0
 19  5  1  0  0  0
 19  7  1  0  0  0
 20  7  1  0  0  0
 21 20  2  0  0  0
 22 21  1  0  0  0
 23 10  1  0  0  0
 24  8  1  0  0  0
 25 24  1  0  0  0
 25 47  1  0  0  0
 25 48  1  0  0  0
 26 11  1  0  0  0
 26 12  1  0  0  0
 26 27  1  0  0  0
 26 49  1  0  0  0
 27 28  1  0  0  0
 28 29  1  0  0  0
 28 50  1  0  0  0
 28 51  1  0  0  0
 29 52  1  0  0  0
 29 53  1  0  0  0
 30 27  1  0  0  0
 30 31  2  0  0  0
 32 16  1  0  0  0
 32 30  1  0  0  0
M  END
$$$$
