
     RDKit          3D

 32 37  0  0  0  0  0  0  0  0999 V2000
   25.0580  -24.1400   30.8520 C   0  0  0  0  0  0  0  0  0  0  0  0
   25.9960  -23.9740   29.8340 C   0  0  0  0  0  0  0  0  0  0  0  0
   25.5580  -23.5440   28.5860 C   0  0  0  0  0  0  0  0  0  0  0  0
   24.2030  -23.2860   28.3730 C   0  0  0  0  0  0  0  0  0  0  0  0
   23.2560  -23.4500   29.4040 C   0  0  0  0  0  0  0  0  0  0  0  0
   23.6990  -23.8900   30.6540 C   0  0  0  0  0  0  0  0  0  0  0  0
   20.9760  -22.4170   29.7330 N   0  0  0  0  0  0  0  0  0  0  0  0
   19.3570  -24.3840   25.9640 C   0  0  0  0  0  0  0  0  0  0  0  0
   20.7030  -24.8760   26.0020 C   0  0  0  0  0  0  0  0  0  0  0  0
   21.1450  -23.7020   27.9410 C   0  0  0  0  0  0  0  0  0  0  0  0
   16.1600  -24.5500   23.8380 C   0  0  1  0  0  0  0  0  0  0  0  0
   17.5680  -26.7590   24.0130 C   0  0  0  0  0  0  0  0  0  0  0  0
   18.7100  -25.7680   23.9200 C   0  0  0  0  0  0  0  0  0  0  0  0
   11.6290  -26.2860   23.9620 C   0  0  0  0  0  0  0  0  0  0  0  0
   10.3400  -26.7320   24.5870 C   0  0  0  0  0  0  0  0  0  0  0  0
   11.6920  -25.9620   22.6740 C   0  0  0  0  0  0  0  0  0  0  0  0
   25.5820  -24.6810   32.3960 Cl  0  0  0  0  0  0  0  0  0  0  0  0
   22.5800  -24.1010   31.9560 Cl  0  0  0  0  0  0  0  0  0  0  0  0
   21.8360  -23.1660   29.1020 C   0  0  0  0  0  0  0  0  0  0  0  0
   19.7480  -22.4110   29.0660 N   0  0  0  0  0  0  0  0  0  0  0  0
   19.8230  -23.1970   27.9550 C   0  0  0  0  0  0  0  0  0  0  0  0
   18.9750  -23.5590   26.9700 N   0  0  0  0  0  0  0  0  0  0  0  0
   21.5370  -24.5210   26.9610 N   0  0  0  0  0  0  0  0  0  0  0  0
   18.4320  -24.7280   24.9510 N   0  0  0  0  0  0  0  0  0  0  0  0
   17.3000  -23.8250   24.5850 C   0  0  0  0  0  0  0  0  0  0  0  0
   16.3080  -26.0410   23.5320 C   0  0  1  0  0  0  0  0  0  0  0  0
   15.2060  -25.5660   24.5040 C   0  0  1  0  0  0  0  0  0  0  0  0
   15.3060  -25.7980   26.0360 C   0  0  0  0  0  0  0  0  0  0  0  0
   15.1580  -27.2190   26.4020 N   0  0  0  0  0  0  0  0  0  0  0  0
   13.8030  -25.7640   23.9520 C   0  0  0  0  0  0  0  0  0  0  0  0
   12.7670  -26.1710   24.6190 N   0  0  0  0  0  0  0  0  0  0  0  0
   13.3450  -25.4890   22.3240 S   0  0  0  0  0  0  0  0  0  0  0  0
  2  1  2  0
  3  2  1  0
  4  3  2  0
  5  4  1  0
  6  5  2  0
  6  1  1  0
  9  8  2  0
 13 12  1  0
 15 14  1  0
 16 14  2  0
 17  1  1  0
 18  6  1  0
 19 10  2  0
 19  7  1  0
 19  5  1  0
 20  7  2  0
 21 20  1  0
 21 10  1  0
 22  8  1  0
 22 21  2  0
 23  9  1  0
 23 10  1  0
 24 13  1  0
 24  8  1  0
 11 25  1  1
 25 24  1  0
 26 11  1  0
 26 12  1  1
 27 26  1  0
 27 11  1  0
 27 28  1  1
 29 28  1  0
 30 27  1  0
 31 30  2  0
 31 14  1  0
 32 30  1  0
 32 16  1  0
M  END
$$$$

     RDKit          3D

 32 37  0  0  0  0  0  0  0  0999 V2000
   25.0580  -24.1400   30.8520 C   0  0  0  0  0  0  0  0  0  0  0  0
   25.9960  -23.9740   29.8340 C   0  0  0  0  0  0  0  0  0  0  0  0
   25.5580  -23.5440   28.5860 C   0  0  0  0  0  0  0  0  0  0  0  0
   24.2030  -23.2860   28.3730 C   0  0  0  0  0  0  0  0  0  0  0  0
   23.2560  -23.4500   29.4040 C   0  0  0  0  0  0  0  0  0  0  0  0
   23.6990  -23.8900   30.6540 C   0  0  0  0  0  0  0  0  0  0  0  0
   20.9760  -22.4170   29.7330 N   0  0  0  0  0  0  0  0  0  0  0  0
   19.3570  -24.3840   25.9640 C   0  0  0  0  0  0  0  0  0  0  0  0
   20.7030  -24.8760   26.0020 C   0  0  0  0  0  0  0  0  0  0  0  0
   21.1450  -23.7020   27.9410 C   0  0  0  0  0  0  0  0  0  0  0  0
   16.1600  -24.5500   23.8380 C   0  0  1  0  0  0  0  0  0  0  0  0
   17.5680  -26.7590   24.0130 C   0  0  0  0  0  0  0  0  0  0  0  0
   18.7100  -25.7680   23.9200 C   0  0  0  0  0  0  0  0  0  0  0  0
   11.6290  -26.2860   23.9620 C   0  0  0  0  0  0  0  0  0  0  0  0
   10.3400  -26.7320   24.5870 C   0  0  0  0  0  0  0  0  0  0  0  0
   11.6920  -25.9620   22.6740 C   0  0  0  0  0  0  0  0  0  0  0  0
   25.5820  -24.6810   32.3960 Cl  0  0  0  0  0  0  0  0  0  0  0  0
   22.5800  -24.1010   31.9560 Cl  0  0  0  0  0  0  0  0  0  0  0  0
   21.8360  -23.1660   29.1020 C   0  0  0  0  0  0  0  0  0  0  0  0
   19.7480  -22.4110   29.0660 N   0  0  0  0  0  0  0  0  0  0  0  0
   19.8230  -23.1970   27.9550 C   0  0  0  0  0  0  0  0  0  0  0  0
   18.9750  -23.5590   26.9700 N   0  0  0  0  0  0  0  0  0  0  0  0
   21.5370  -24.5210   26.9610 N   0  0  0  0  0  0  0  0  0  0  0  0
   18.4320  -24.7280   24.9510 N   0  0  0  0  0  0  0  0  0  0  0  0
   17.3000  -23.8250   24.5850 C   0  0  0  0  0  0  0  0  0  0  0  0
   16.3080  -26.0410   23.5320 C   0  0  1  0  0  0  0  0  0  0  0  0
   15.2060  -25.5660   24.5040 C   0  0  1  0  0  0  0  0  0  0  0  0
   15.3060  -25.7980   26.0360 C   0  0  0  0  0  0  0  0  0  0  0  0
   15.1580  -27.2190   26.4020 N   0  0  0  0  0  0  0  0  0  0  0  0
   13.8030  -25.7640   23.9520 C   0  0  0  0  0  0  0  0  0  0  0  0
   12.7670  -26.1710   24.6190 N   0  0  0  0  0  0  0  0  0  0  0  0
   13.3450  -25.4890   22.3240 S   0  0  0  0  0  0  0  0  0  0  0  0
  2  1  2  0
  3  2  1  0
  4  3  2  0
  5  4  1  0
  6  5  2  0
  6  1  1  0
  9  8  1  0
 13 12  1  0
 15 14  1  0
 16 14  2  0
 17  1  1  0
 18  6  1  0
 19 10  2  0
 19  7  1  0
 19  5  1  0
 20  7  1  0
 21 20  2  0
 21 10  1  0
 22  8  2  0
 22 21  1  0
 23  9  2  0
 23 10  1  0
 24 13  1  0
 24  8  1  0
 11 25  1  1
 25 24  1  0
 26 11  1  0
 26 12  1  1
 27 26  1  0
 27 11  1  0
 27 28  1  1
 29 28  1  0
 30 27  1  0
 31 30  2  0
 31 14  1  0
 32 30  1  0
 32 16  1  0
M  END
$$$$

     RDKit          3D

 32 37  0  0  0  0  0  0  0  0999 V2000
   25.0580  -24.1400   30.8520 C   0  0  0  0  0  0  0  0  0  0  0  0
   25.9960  -23.9740   29.8340 C   0  0  0  0  0  0  0  0  0  0  0  0
   25.5580  -23.5440   28.5860 C   0  0  0  0  0  0  0  0  0  0  0  0
   24.2030  -23.2860   28.3730 C   0  0  0  0  0  0  0  0  0  0  0  0
   23.2560  -23.4500   29.4040 C   0  0  0  0  0  0  0  0  0  0  0  0
   23.6990  -23.8900   30.6540 C   0  0  0  0  0  0  0  0  0  0  0  0
   20.9760  -22.4170   29.7330 N   0  0  0  0  0  0  0  0  0  0  0  0
   19.3570  -24.3840   25.9640 C   0  0  0  0  0  0  0  0  0  0  0  0
   20.7030  -24.8760   26.0020 C   0  0  0  0  0  0  0  0  0  0  0  0
   21.1450  -23.7020   27.9410 C   0  0  0  0  0  0  0  0  0  0  0  0
   16.1600  -24.5500   23.8380 C   0  0  1  0  0  0  0  0  0  0  0  0
   17.5680  -26.7590   24.0130 C   0  0  0  0  0  0  0  0  0  0  0  0
   18.7100  -25.7680   23.9200 C   0  0  0  0  0  0  0  0  0  0  0  0
   11.6290  -26.2860   23.9620 C   0  0  0  0  0  0  0  0  0  0  0  0
   10.3400  -26.7320   24.5870 C   0  0  0  0  0  0  0  0  0  0  0  0
   11.6920  -25.9620   22.6740 C   0  0  0  0  0  0  0  0  0  0  0  0
   25.5820  -24.6810   32.3960 Cl  0  0  0  0  0  0  0  0  0  0  0  0
   22.5800  -24.1010   31.9560 Cl  0  0  0  0  0  0  0  0  0  0  0  0
   21.8360  -23.1660   29.1020 C   0  0  0  0  0  0  0  0  0  0  0  0
   19.7480  -22.4110   29.0660 N   0  0  0  0  0  0  0  0  0  0  0  0
   19.8230  -23.1970   27.9550 C   0  0  0  0  0  0  0  0  0  0  0  0
   18.9750  -23.5590   26.9700 N   0  0  0  0  0  0  0  0  0  0  0  0
   21.5370  -24.5210   26.9610 N   0  0  0  0  0  0  0  0  0  0  0  0
   18.4320  -24.7280   24.9510 N   0  0  0  0  0  0  0  0  0  0  0  0
   17.3000  -23.8250   24.5850 C   0  0  0  0  0  0  0  0  0  0  0  0
   16.3080  -26.0410   23.5320 C   0  0  1  0  0  0  0  0  0  0  0  0
   15.2060  -25.5660   24.5040 C   0  0  1  0  0  0  0  0  0  0  0  0
   15.3060  -25.7980   26.0360 C   0  0  0  0  0  0  0  0  0  0  0  0
   15.1580  -27.2190   26.4020 N   0  0  0  0  0  0  0  0  0  0  0  0
   13.8030  -25.7640   23.9520 C   0  0  0  0  0  0  0  0  0  0  0  0
   12.7670  -26.1710   24.6190 N   0  0  0  0  0  0  0  0  0  0  0  0
   13.3450  -25.4890   22.3240 S   0  0  0  0  0  0  0  0  0  0  0  0
  2  1  2  0
  3  2  1  0
  4  3  2  0
  5  4  1  0
  6  5  2  0
  6  1  1  0
  9  8  1  0
 13 12  1  0
 15 14  1  0
 16 14  2  0
 17  1  1  0
 18  6  1  0
 19 10  1  0
 19  7  2  0
 19  5  1  0
 20  7  1  0
 21 20  1  0
 21 10  2  0
 22  8  2  0
 22 21  1  0
 23  9  2  0
 23 10  1  0
 24 13  1  0
 24  8  1  0
 11 25  1  1
 25 24  1  0
 26 11  1  0
 26 12  1  1
 27 26  1  0
 27 11  1  0
 27 28  1  1
 29 28  1  0
 30 27  1  0
 31 30  2  0
 31 14  1  0
 32 30  1  0
 32 16  1  0
M  END
$$$$

     RDKit          3D

 32 37  0  0  0  0  0  0  0  0999 V2000
   25.0580  -24.1400   30.8520 C   0  0  0  0  0  0  0  0  0  0  0  0
   25.9960  -23.9740   29.8340 C   0  0  0  0  0  0  0  0  0  0  0  0
   25.5580  -23.5440   28.5860 C   0  0  0  0  0  0  0  0  0  0  0  0
   24.2030  -23.2860   28.3730 C   0  0  0  0  0  0  0  0  0  0  0  0
   23.2560  -23.4500   29.4040 C   0  0  0  0  0  0  0  0  0  0  0  0
   23.6990  -23.8900   30.6540 C   0  0  0  0  0  0  0  0  0  0  0  0
   20.9760  -22.4170   29.7330 N   0  0  0  0  0  0  0  0  0  0  0  0
   19.3570  -24.3840   25.9640 C   0  0  0  0  0  0  0  0  0  0  0  0
   20.7030  -24.8760   26.0020 C   0  0  0  0  0  0  0  0  0  0  0  0
   21.1450  -23.7020   27.9410 C   0  0  0  0  0  0  0  0  0  0  0  0
   16.1600  -24.5500   23.8380 C   0  0  1  0  0  0  0  0  0  0  0  0
   17.5680  -26.7590   24.0130 C   0  0  0  0  0  0  0  0  0  0  0  0
   18.7100  -25.7680   23.9200 C   0  0  0  0  0  0  0  0  0  0  0  0
   11.6290  -26.2860   23.9620 C   0  0  0  0  0  0  0  0  0  0  0  0
   10.3400  -26.7320   24.5870 C   0  0  0  0  0  0  0  0  0  0  0  0
   11.6920  -25.9620   22.6740 C   0  0  0  0  0  0  0  0  0  0  0  0
   25.5820  -24.6810   32.3960 Cl  0  0  0  0  0  0  0  0  0  0  0  0
   22.5800  -24.1010   31.9560 Cl  0  0  0  0  0  0  0  0  0  0  0  0
   21.8360  -23.1660   29.1020 C   0  0  0  0  0  0  0  0  0  0  0  0
   19.7480  -22.4110   29.0660 N   0  0  0  0  0  0  0  0  0  0  0  0
   19.8230  -23.1970   27.9550 C   0  0  0  0  0  0  0  0  0  0  0  0
   18.9750  -23.5590   26.9700 N   0  0  0  0  0  0  0  0  0  0  0  0
   21.5370  -24.5210   26.9610 N   0  0  0  0  0  0  0  0  0  0  0  0
   18.4320  -24.7280   24.9510 N   0  0  0  0  0  0  0  0  0  0  0  0
   17.3000  -23.8250   24.5850 C   0  0  0  0  0  0  0  0  0  0  0  0
   16.3080  -26.0410   23.5320 C   0  0  1  0  0  0  0  0  0  0  0  0
   15.2060  -25.5660   24.5040 C   0  0  1  0  0  0  0  0  0  0  0  0
   15.3060  -25.7980   26.0360 C   0  0  0  0  0  0  0  0  0  0  0  0
   15.1580  -27.2190   26.4020 N   0  0  0  0  0  0  0  0  0  0  0  0
   13.8030  -25.7640   23.9520 C   0  0  0  0  0  0  0  0  0  0  0  0
   12.7670  -26.1710   24.6190 N   0  0  0  0  0  0  0  0  0  0  0  0
   13.3450  -25.4890   22.3240 S   0  0  0  0  0  0  0  0  0  0  0  0
  2  1  2  0
  3  2  1  0
  4  3  2  0
  5  4  1  0
  6  5  2  0
  6  1  1  0
  9  8  2  0
 13 12  1  0
 15 14  1  0
 16 14  2  0
 17  1  1  0
 18  6  1  0
 19 10  1  0
 19  7  2  0
 19  5  1  0
 20  7  1  0
 21 20  2  0
 21 10  1  0
 22  8  1  0
 22 21  1  0
 23  9  1  0
 23 10  2  0
 24 13  1  0
 24  8  1  0
 11 25  1  1
 25 24  1  0
 26 11  1  0
 26 12  1  1
 27 26  1  0
 27 11  1  0
 27 28  1  1
 29 28  1  0
 30 27  1  0
 31 30  2  0
 31 14  1  0
 32 30  1  0
 32 16  1  0
M  END
$$$$
