REMARK  Name = 
REMARK  6 active torsions:
REMARK  status: ('A' for Active; 'I' for Inactive)
REMARK    1  A    between atoms: C_2  and  N_28
REMARK    2  A    between atoms: C_10  and  C_12
REMARK    3  A    between atoms: C_11  and  N_27
REMARK    4  A    between atoms: C_14  and  S_16
REMARK    5  A    between atoms: S_16  and  C_17
REMARK    6  A    between atoms: C_20  and  N_26
REMARK                            x       y       z     vdW  Elec       q    Type
REMARK                         _______ _______ _______ _____ _____    ______ ____
ROOT
ATOM      1  O   UNL     1      28.879  42.572   1.789  0.00  0.00    +0.000 OA
ATOM      2  C   UNL     1      25.388  39.830   2.431  0.00  0.00    +0.000 C 
ATOM      3  C   UNL     1      26.618  40.358   3.225  0.00  0.00    +0.000 C 
ATOM      4  C   UNL     1      26.951  41.863   2.937  0.00  0.00    +0.000 C 
ATOM      5  C   UNL     1      25.663  42.751   2.910  0.00  0.00    +0.000 C 
ATOM      6  C   UNL     1      27.633  41.951   1.551  0.00  0.00    +0.000 C 
ATOM      7  C   UNL     1      29.320  42.157   3.068  0.00  0.00    +0.000 C 
ATOM      8  C   UNL     1      28.057  42.307   3.919  0.00  0.00    +0.000 C 
ATOM      9  C   UNL     1      24.574  42.140   2.008  0.00  0.00    +0.000 C 
ATOM     10  N   UNL     1      24.331  40.831   2.612  0.00  0.00    +0.000 N 
ATOM     11  H   UNL     1      25.637  39.726   1.365  0.00  0.00    +0.000 HD
ATOM     12  H   UNL     1      25.071  38.840   2.790  0.00  0.00    +0.000 HD
ATOM     13  H   UNL     1      26.412  40.247   4.300  0.00  0.00    +0.000 HD
ATOM     14  H   UNL     1      27.488  39.767   2.903  0.00  0.00    +0.000 HD
ATOM     15  H   UNL     1      25.270  42.842   3.933  0.00  0.00    +0.000 HD
ATOM     16  H   UNL     1      25.933  43.737   2.505  0.00  0.00    +0.000 HD
ATOM     17  H   UNL     1      27.778  40.946   1.128  0.00  0.00    +0.000 HD
ATOM     18  H   UNL     1      27.024  42.515   0.829  0.00  0.00    +0.000 HD
ATOM     19  H   UNL     1      29.692  41.124   3.144  0.00  0.00    +0.000 HD
ATOM     20  H   UNL     1      28.063  41.705   4.840  0.00  0.00    +0.000 HD
ATOM     21  H   UNL     1      23.662  42.755   2.020  0.00  0.00    +0.000 HD
ATOM     22  H   UNL     1      24.876  42.077   0.952  0.00  0.00    +0.000 HD
ENDROOT
BRANCH  10  26
ATOM     23  C   UNL     1      21.461  40.523   5.509  0.00  0.00    +0.000 A 
ATOM     24  N   UNL     1      21.365  41.612   4.713  0.00  0.00    +0.000 NA
ATOM     25  C   UNL     1      22.305  41.678   3.760  0.00  0.00    +0.000 A 
ATOM     26  C   UNL     1      23.301  40.689   3.573  0.00  0.00    +0.000 A 
ATOM     27  N   UNL     1      23.383  39.634   4.420  0.00  0.00    +0.000 NA
ATOM     28  C   UNL     1      22.461  39.539   5.379  0.00  0.00    +0.000 A 
ATOM     29  N   UNL     1      22.585  38.442   6.221  0.00  0.00    +0.000 N 
ATOM     30  H   UNL     1      22.303  42.548   3.087  0.00  0.00    +0.000 HD
ATOM     31  H   UNL     1      23.341  37.759   6.069  0.00  0.00    +0.000 HD
ATOM     32  H   UNL     1      21.921  38.311   6.997  0.00  0.00    +0.000 HD
BRANCH  23  33
ATOM     33  S   UNL     1      20.339  40.482   6.838  0.00  0.00    +0.000 S 
BRANCH  33  38
ATOM     34  C   UNL     1      17.364  39.794   4.156  0.00  0.00    +0.000 A 
ATOM     35  C   UNL     1      16.394  40.475   6.117  0.00  0.00    +0.000 A 
ATOM     36  C   UNL     1      17.631  40.572   6.765  0.00  0.00    +0.000 A 
ATOM     37  N   UNL     1      16.251  40.070   4.853  0.00  0.00    +0.000 NA
ATOM     38  C   UNL     1      18.786  40.312   6.032  0.00  0.00    +0.000 A 
ATOM     39  C   UNL     1      18.653  39.863   4.713  0.00  0.00    +0.000 A 
ATOM     40 CL   UNL     1      17.730  41.064   8.413  0.00  0.00    +0.000 Cl
ATOM     41  H   UNL     1      17.263  39.500   3.101  0.00  0.00    +0.000 HD
ATOM     42  H   UNL     1      19.536  39.571   4.126  0.00  0.00    +0.000 HD
BRANCH  35  43
ATOM     43  N   UNL     1      15.239  40.788   6.802  0.00  0.00    +0.000 N 
ATOM     44  H   UNL     1      14.326  40.719   6.331  0.00  0.00    +0.000 HD
ATOM     45  H   UNL     1      15.289  41.091   7.785  0.00  0.00    +0.000 HD
ENDBRANCH  35  43
ENDBRANCH  33  38
ENDBRANCH  23  33
ENDBRANCH  10  26
BRANCH   7  46
ATOM     46  C   UNL     1      30.563  42.939   3.498  0.00  0.00    +0.000 C 
ATOM     47  H   UNL     1      30.614  42.971   4.596  0.00  0.00    +0.000 HD
ATOM     48  H   UNL     1      31.462  42.444   3.103  0.00  0.00    +0.000 HD
ATOM     49  H   UNL     1      30.506  43.964   3.103  0.00  0.00    +0.000 HD
ENDBRANCH   7  46
BRANCH   8  50
ATOM     50  N   UNL     1      27.887  43.672   4.476  0.00  0.00    +0.000 NA
ATOM     51  H   UNL     1      27.893  43.626   5.505  0.00  0.00    +0.000 HD
ATOM     52  H   UNL     1      28.660  44.273   4.155  0.00  0.00    +0.000 HD
ENDBRANCH   8  50
TORSDOF 6
