_i0
     RDKit          3D

 53 56  0  0  0  0  0  0  0  0999 V2000
   -3.7441    0.4470    0.7608 C   0  0  1  0  0  0  0  0  0  0  0  0
   -4.4063   -0.7095    1.4566 N   0  0  0  0  0  0  0  0  0  0  0  0
   -3.2532    0.0408   -0.6452 C   0  0  0  0  0  0  0  0  0  0  0  0
   -4.8185    1.4850    0.4144 C   0  0  1  0  0  0  0  0  0  0  0  0
   -2.6356   -1.3678   -0.7834 C   0  0  0  0  0  0  0  0  0  0  0  0
   -2.1970    1.0476   -1.1837 C   0  0  0  0  0  0  0  0  0  0  0  0
   -4.5451    0.1637   -1.4790 C   0  0  0  0  0  0  0  0  0  0  0  0
   -5.5197    0.8435   -0.6598 O   0  0  0  0  0  0  0  0  0  0  0  0
   -5.7978    1.8540    1.5171 C   0  0  0  0  0  0  0  0  0  0  0  0
   -1.2926   -1.4916   -0.0588 C   0  0  0  0  0  0  0  0  0  0  0  0
   -0.8634    0.9264   -0.4445 C   0  0  0  0  0  0  0  0  0  0  0  0
   -0.3825   -0.4557   -0.5438 N   0  0  0  0  0  0  0  0  0  0  0  0
    0.8817   -0.5900    0.0841 C   0  0  0  0  0  0  0  0  0  0  0  0
    1.7936   -1.5471   -0.3704 C   0  0  0  0  0  0  0  0  0  0  0  0
    1.1980    0.2045    1.1273 N   0  0  0  0  0  0  0  0  0  0  0  0
    3.0222   -1.7352    0.1649 N   0  0  0  0  0  0  0  0  0  0  0  0
    2.4219    0.0522    1.6811 C   0  0  0  0  0  0  0  0  0  0  0  0
    3.3323   -0.9073    1.1922 C   0  0  0  0  0  0  0  0  0  0  0  0
    2.7588    0.9610    2.7071 N   0  0  0  0  0  0  0  0  0  0  0  0
    4.9586   -1.0954    1.9125 S   0  0  0  0  0  0  0  0  0  0  0  0
    5.9777   -0.9276    0.4463 C   0  0  0  0  0  0  0  0  0  0  0  0
    6.1945    0.2875   -0.2203 C   0  0  0  0  0  0  0  0  0  0  0  0
    6.6013   -2.0806   -0.0338 C   0  0  0  0  0  0  0  0  0  0  0  0
    7.0329    0.2915   -1.3446 C   0  0  0  0  0  0  0  0  0  0  0  0
    5.4894    1.7729    0.3303 Cl  0  0  0  0  0  0  0  0  0  0  0  0
    7.4054   -1.9773   -1.1538 C   0  0  0  0  0  0  0  0  0  0  0  0
    7.6318   -0.8215   -1.8116 N   0  0  0  0  0  0  0  0  0  0  0  0
    7.2768    1.4451   -2.0950 N   0  0  0  0  0  0  0  0  0  0  0  0
   -2.9799    0.8216    1.4428 H   0  0  0  0  0  0  0  0  0  0  0  0
   -3.7833   -1.5097    1.6205 H   0  0  0  0  0  0  0  0  0  0  0  0
   -5.2203   -1.0276    0.9068 H   0  0  0  0  0  0  0  0  0  0  0  0
   -4.7714   -0.4308    2.3772 H   0  0  0  0  0  0  0  0  0  0  0  0
   -4.3679    2.4075    0.0311 H   0  0  0  0  0  0  0  0  0  0  0  0
   -2.4741   -1.5753   -1.8509 H   0  0  0  0  0  0  0  0  0  0  0  0
   -3.3215   -2.1460   -0.4307 H   0  0  0  0  0  0  0  0  0  0  0  0
   -2.0244    0.8500   -2.2494 H   0  0  0  0  0  0  0  0  0  0  0  0
   -2.5499    2.0811   -1.1223 H   0  0  0  0  0  0  0  0  0  0  0  0
   -4.9692   -0.8081   -1.7459 H   0  0  0  0  0  0  0  0  0  0  0  0
   -4.4090    0.7397   -2.4011 H   0  0  0  0  0  0  0  0  0  0  0  0
   -6.4398    1.0110    1.7950 H   0  0  0  0  0  0  0  0  0  0  0  0
   -5.2761    2.2218    2.4051 H   0  0  0  0  0  0  0  0  0  0  0  0
   -6.4725    2.6406    1.1621 H   0  0  0  0  0  0  0  0  0  0  0  0
   -0.8893   -2.4917   -0.2623 H   0  0  0  0  0  0  0  0  0  0  0  0
   -1.4429   -1.4086    1.0274 H   0  0  0  0  0  0  0  0  0  0  0  0
   -0.1463    1.6113   -0.9134 H   0  0  0  0  0  0  0  0  0  0  0  0
   -0.9924    1.2415    0.5965 H   0  0  0  0  0  0  0  0  0  0  0  0
    1.5498   -2.1919   -1.2099 H   0  0  0  0  0  0  0  0  0  0  0  0
    3.1412    0.4415    3.4958 H   0  0  0  0  0  0  0  0  0  0  0  0
    3.5253    1.5446    2.3642 H   0  0  0  0  0  0  0  0  0  0  0  0
    6.4581   -3.0453    0.4403 H   0  0  0  0  0  0  0  0  0  0  0  0
    7.8987   -2.8493   -1.5684 H   0  0  0  0  0  0  0  0  0  0  0  0
    7.5469    2.2310   -1.5130 H   0  0  0  0  0  0  0  0  0  0  0  0
    7.9759    1.2142   -2.7958 H   0  0  0  0  0  0  0  0  0  0  0  0
  1  2  1  0
  1  3  1  0
  1  4  1  0
  3  5  1  0
  6  3  1  0
  7  3  1  0
  4  8  1  0
  9  4  1  0
  5 10  1  0
 11  6  1  0
  7  8  1  0
 12 10  1  0
 12 11  1  0
 12 13  1  0
 13 14  2  0
 15 13  1  0
 14 16  1  0
 17 15  2  0
 16 18  2  0
 17 18  1  0
 19 17  1  0
 18 20  1  0
 20 21  1  0
 21 22  2  0
 23 21  1  0
 22 24  1  0
 25 22  1  0
 23 26  2  0
 27 24  2  0
 28 24  1  0
 27 26  1  0
  1 29  1  1
  2 30  1  0
  2 31  1  0
  2 32  1  0
  4 33  1  6
  5 34  1  0
  5 35  1  0
  6 36  1  0
  6 37  1  0
  7 38  1  0
  7 39  1  0
  9 40  1  0
  9 41  1  0
  9 42  1  0
 10 43  1  0
 10 44  1  0
 11 45  1  0
 11 46  1  0
 14 47  1  0
 19 48  1  0
 19 49  1  0
 23 50  1  0
 26 51  1  0
 28 52  1  0
 28 53  1  0
M  CHG  1   2   1
M  END
>  <ScrubInfo>  (1) 
{"isomerGroup": 0, "isomerId": 0, "confId": 0, "nr_conformers:": 1, "nr_isomers:": 4}

$$$$
_i1
     RDKit          3D

 53 56  0  0  0  0  0  0  0  0999 V2000
   -0.6320    0.9939   -1.8034 N   0  0  0  0  0  0  0  0  0  0  0  0
    0.0295    1.3090   -0.6229 C   0  0  0  0  0  0  0  0  0  0  0  0
    1.3294    0.8329   -0.3777 N   0  0  0  0  0  0  0  0  0  0  0  0
    2.3916    1.7992   -0.0546 C   0  0  0  0  0  0  0  0  0  0  0  0
    3.5261    1.1487    0.7350 C   0  0  0  0  0  0  0  0  0  0  0  0
    4.0581   -0.1478    0.0754 C   0  0  0  0  0  0  0  0  0  0  0  0
    2.8460   -1.0816   -0.0536 C   0  0  0  0  0  0  0  0  0  0  0  0
    1.7440   -0.4690   -0.9152 C   0  0  0  0  0  0  0  0  0  0  0  0
    5.1600   -0.7526    0.9675 C   0  0  0  0  0  0  0  0  0  0  0  0
    6.4250   -0.4797    0.3218 O   0  0  0  0  0  0  0  0  0  0  0  0
    6.2120    0.5301   -0.6731 C   0  0  1  0  0  0  0  0  0  0  0  0
    7.3614    0.5323   -1.6690 C   0  0  0  0  0  0  0  0  0  0  0  0
    4.8326    0.1437   -1.2273 C   0  0  1  0  0  0  0  0  0  0  0  0
    4.9894   -1.1045   -2.0565 N   0  0  0  0  0  0  0  0  0  0  0  0
   -0.6262    2.0949    0.2696 C   0  0  0  0  0  0  0  0  0  0  0  0
   -1.9095    2.5976    0.1281 N   0  0  0  0  0  0  0  0  0  0  0  0
   -2.4865    2.3747   -1.0147 C   0  0  0  0  0  0  0  0  0  0  0  0
   -4.1243    2.6811   -1.4303 S   0  0  0  0  0  0  0  0  0  0  0  0
   -4.5185    4.3705   -0.9628 C   0  0  0  0  0  0  0  0  0  0  0  0
   -3.6209    5.1950   -0.2820 C   0  0  0  0  0  0  0  0  0  0  0  0
   -3.9975    6.4910    0.0429 C   0  0  0  0  0  0  0  0  0  0  0  0
   -5.1917    7.0262   -0.2707 N   0  0  0  0  0  0  0  0  0  0  0  0
   -6.0698    6.2383   -0.9192 C   0  0  0  0  0  0  0  0  0  0  0  0
   -7.3114    6.8300   -1.1529 N   0  0  0  0  0  0  0  0  0  0  0  0
   -5.7823    4.9114   -1.2791 C   0  0  0  0  0  0  0  0  0  0  0  0
   -6.9966    3.9924   -2.1352 Cl  0  0  0  0  0  0  0  0  0  0  0  0
   -1.7967    1.6360   -2.1649 C   0  0  0  0  0  0  0  0  0  0  0  0
   -2.2335    1.6607   -3.3872 N   0  0  0  0  0  0  0  0  0  0  0  0
   -0.0263    0.6960   -2.5491 H   0  0  0  0  0  0  0  0  0  0  0  0
    2.7679    2.2335   -0.9890 H   0  0  0  0  0  0  0  0  0  0  0  0
    2.0070    2.6350    0.5377 H   0  0  0  0  0  0  0  0  0  0  0  0
    3.1519    0.9130    1.7363 H   0  0  0  0  0  0  0  0  0  0  0  0
    4.3226    1.8881    0.8865 H   0  0  0  0  0  0  0  0  0  0  0  0
    2.4367   -1.2800    0.9518 H   0  0  0  0  0  0  0  0  0  0  0  0
    3.1309   -2.0637   -0.4526 H   0  0  0  0  0  0  0  0  0  0  0  0
    2.0819   -0.3555   -1.9563 H   0  0  0  0  0  0  0  0  0  0  0  0
    0.8954   -1.1652   -0.9087 H   0  0  0  0  0  0  0  0  0  0  0  0
    5.1846   -0.3203    1.9782 H   0  0  0  0  0  0  0  0  0  0  0  0
    5.0744   -1.8406    1.0675 H   0  0  0  0  0  0  0  0  0  0  0  0
    6.1753    1.5089   -0.1801 H   0  0  0  0  0  0  0  0  0  0  0  0
    7.5881   -0.4791   -2.0210 H   0  0  0  0  0  0  0  0  0  0  0  0
    7.1380    1.1680   -2.5366 H   0  0  0  0  0  0  0  0  0  0  0  0
    8.2814    0.9092   -1.1891 H   0  0  0  0  0  0  0  0  0  0  0  0
    4.3981    0.9015   -1.8838 H   0  0  0  0  0  0  0  0  0  0  0  0
    4.1068   -1.5170   -2.3682 H   0  0  0  0  0  0  0  0  0  0  0  0
    5.5471   -0.9238   -2.9022 H   0  0  0  0  0  0  0  0  0  0  0  0
    5.5130   -1.8195   -1.5206 H   0  0  0  0  0  0  0  0  0  0  0  0
   -0.1641    2.3324    1.2275 H   0  0  0  0  0  0  0  0  0  0  0  0
   -2.6312    4.8743    0.0135 H   0  0  0  0  0  0  0  0  0  0  0  0
   -3.3226    7.1493    0.5872 H   0  0  0  0  0  0  0  0  0  0  0  0
   -7.6404    6.6773   -2.0933 H   0  0  0  0  0  0  0  0  0  0  0  0
   -7.2445    7.8061   -0.8976 H   0  0  0  0  0  0  0  0  0  0  0  0
   -1.6513    1.0869   -3.9919 H   0  0  0  0  0  0  0  0  0  0  0  0
  1  2  1  0
  2  3  1  0
  3  4  1  0
  4  5  1  0
  5  6  1  0
  6  7  1  0
  7  8  1  0
  6  9  1  0
  9 10  1  0
 10 11  1  0
 11 12  1  0
 11 13  1  0
 13 14  1  0
  2 15  2  0
 15 16  1  0
 16 17  2  0
 17 18  1  0
 18 19  1  0
 19 20  2  0
 20 21  1  0
 21 22  2  0
 22 23  1  0
 23 24  1  0
 23 25  2  0
 25 26  1  0
 17 27  1  0
 27 28  2  3
 27  1  1  0
  8  3  1  0
 25 19  1  0
 13  6  1  0
  1 29  1  0
  4 30  1  0
  4 31  1  0
  5 32  1  0
  5 33  1  0
  7 34  1  0
  7 35  1  0
  8 36  1  0
  8 37  1  0
  9 38  1  0
  9 39  1  0
 11 40  1  1
 12 41  1  0
 12 42  1  0
 12 43  1  0
 13 44  1  6
 14 45  1  0
 14 46  1  0
 14 47  1  0
 15 48  1  0
 20 49  1  0
 21 50  1  0
 24 51  1  0
 24 52  1  0
 28 53  1  0
M  CHG  1  14   1
M  END
>  <ScrubInfo>  (2) 
{"isomerGroup": 0, "isomerId": 1, "confId": 0, "nr_conformers:": 1, "nr_isomers:": 4}

$$$$
_i2
     RDKit          3D

 53 56  0  0  0  0  0  0  0  0999 V2000
    6.9775    2.3735    0.5369 N   0  0  0  0  0  0  0  0  0  0  0  0
    6.1077    2.6349    1.5653 C   0  0  0  0  0  0  0  0  0  0  0  0
    5.3161    1.6788    2.0731 C   0  0  0  0  0  0  0  0  0  0  0  0
    5.3755    0.3139    1.5372 C   0  0  0  0  0  0  0  0  0  0  0  0
    4.3703   -0.8774    2.3283 S   0  0  0  0  0  0  0  0  0  0  0  0
    2.7784   -0.3905    1.6842 C   0  0  0  0  0  0  0  0  0  0  0  0
    2.0422    0.4240    2.4796 N   0  0  0  0  0  0  0  0  0  0  0  0
    0.7951    0.6991    2.0294 C   0  0  0  0  0  0  0  0  0  0  0  0
    0.2727    0.2225    0.8210 C   0  0  0  0  0  0  0  0  0  0  0  0
   -1.0452    0.5527    0.4209 N   0  0  0  0  0  0  0  0  0  0  0  0
   -1.1736    1.9765    0.1183 C   0  0  0  0  0  0  0  0  0  0  0  0
   -2.6362    2.3035   -0.2016 C   0  0  0  0  0  0  0  0  0  0  0  0
   -3.2022    1.4267   -1.3391 C   0  0  0  0  0  0  0  0  0  0  0  0
   -3.0174   -0.0527   -0.8946 C   0  0  0  0  0  0  0  0  0  0  0  0
   -1.5563   -0.3848   -0.5834 C   0  0  0  0  0  0  0  0  0  0  0  0
   -4.7019    1.7031   -1.5692 C   0  0  0  0  0  0  0  0  0  0  0  0
   -4.9223    1.7131   -2.9961 O   0  0  0  0  0  0  0  0  0  0  0  0
   -3.7646    1.1522   -3.6354 C   0  0  1  0  0  0  0  0  0  0  0  0
   -3.7333    1.5620   -5.0982 C   0  0  0  0  0  0  0  0  0  0  0  0
   -2.6206    1.6663   -2.7511 C   0  0  1  0  0  0  0  0  0  0  0  0
   -2.4344    3.1352   -3.0172 N   0  0  0  0  0  0  0  0  0  0  0  0
    1.0301   -0.5704    0.0301 N   0  0  0  0  0  0  0  0  0  0  0  0
    2.2699   -0.8935    0.4692 C   0  0  0  0  0  0  0  0  0  0  0  0
    3.0154   -1.6824   -0.4049 N   0  0  0  0  0  0  0  0  0  0  0  0
    6.2223   -0.0005    0.5289 C   0  0  0  0  0  0  0  0  0  0  0  0
    6.4222   -1.5705   -0.1599 Cl  0  0  0  0  0  0  0  0  0  0  0  0
    7.0754    1.1227   -0.0343 C   0  0  0  0  0  0  0  0  0  0  0  0
    7.8803    0.9142   -1.0315 N   0  0  0  0  0  0  0  0  0  0  0  0
    7.5873    3.1198    0.2285 H   0  0  0  0  0  0  0  0  0  0  0  0
    6.1085    3.6564    1.9333 H   0  0  0  0  0  0  0  0  0  0  0  0
    4.6318    1.9033    2.8880 H   0  0  0  0  0  0  0  0  0  0  0  0
    0.1945    1.3093    2.6969 H   0  0  0  0  0  0  0  0  0  0  0  0
   -0.8773    2.5934    0.9735 H   0  0  0  0  0  0  0  0  0  0  0  0
   -0.5314    2.2542   -0.7290 H   0  0  0  0  0  0  0  0  0  0  0  0
   -3.2359    2.1356    0.7063 H   0  0  0  0  0  0  0  0  0  0  0  0
   -2.7338    3.3714   -0.4273 H   0  0  0  0  0  0  0  0  0  0  0  0
   -3.3903   -0.7565   -1.6464 H   0  0  0  0  0  0  0  0  0  0  0  0
   -3.6156   -0.2342    0.0096 H   0  0  0  0  0  0  0  0  0  0  0  0
   -0.9638   -0.3487   -1.5087 H   0  0  0  0  0  0  0  0  0  0  0  0
   -1.5165   -1.4130   -0.2002 H   0  0  0  0  0  0  0  0  0  0  0  0
   -5.3569    0.9484   -1.1197 H   0  0  0  0  0  0  0  0  0  0  0  0
   -5.0067    2.6839   -1.1935 H   0  0  0  0  0  0  0  0  0  0  0  0
   -3.8403    0.0601   -3.5897 H   0  0  0  0  0  0  0  0  0  0  0  0
   -2.7892    1.2758   -5.5721 H   0  0  0  0  0  0  0  0  0  0  0  0
   -3.8912    2.6386   -5.2271 H   0  0  0  0  0  0  0  0  0  0  0  0
   -4.5525    1.0733   -5.6374 H   0  0  0  0  0  0  0  0  0  0  0  0
   -1.6613    1.1875   -2.9590 H   0  0  0  0  0  0  0  0  0  0  0  0
   -2.0948    3.2967   -3.9755 H   0  0  0  0  0  0  0  0  0  0  0  0
   -3.3446    3.6223   -2.9468 H   0  0  0  0  0  0  0  0  0  0  0  0
   -1.7641    3.5933   -2.3898 H   0  0  0  0  0  0  0  0  0  0  0  0
    3.5320   -2.4189    0.0697 H   0  0  0  0  0  0  0  0  0  0  0  0
    2.4253   -2.0257   -1.1542 H   0  0  0  0  0  0  0  0  0  0  0  0
    8.3791    1.7674   -1.2842 H   0  0  0  0  0  0  0  0  0  0  0  0
  1  2  1  0
  2  3  2  0
  3  4  1  0
  4  5  1  0
  5  6  1  0
  6  7  2  0
  7  8  1  0
  8  9  2  0
  9 10  1  0
 10 11  1  0
 11 12  1  0
 12 13  1  0
 13 14  1  0
 14 15  1  0
 13 16  1  0
 16 17  1  0
 17 18  1  0
 18 19  1  0
 18 20  1  0
 20 21  1  0
  9 22  1  0
 22 23  2  0
 23 24  1  0
  4 25  2  0
 25 26  1  0
 25 27  1  0
 27 28  2  3
 27  1  1  0
 23  6  1  0
 15 10  1  0
 20 13  1  0
  1 29  1  0
  2 30  1  0
  3 31  1  0
  8 32  1  0
 11 33  1  0
 11 34  1  0
 12 35  1  0
 12 36  1  0
 14 37  1  0
 14 38  1  0
 15 39  1  0
 15 40  1  0
 16 41  1  0
 16 42  1  0
 18 43  1  6
 19 44  1  0
 19 45  1  0
 19 46  1  0
 20 47  1  1
 21 48  1  0
 21 49  1  0
 21 50  1  0
 24 51  1  0
 24 52  1  0
 28 53  1  0
M  CHG  1  21   1
M  END
>  <ScrubInfo>  (3) 
{"isomerGroup": 0, "isomerId": 2, "confId": 0, "nr_conformers:": 1, "nr_isomers:": 4}

$$$$
_i3
     RDKit          3D

 53 56  0  0  0  0  0  0  0  0999 V2000
    3.3828   -6.2538    3.6385 N   0  0  0  0  0  0  0  0  0  0  0  0
    3.1123   -6.4411    2.3059 C   0  0  0  0  0  0  0  0  0  0  0  0
    1.8962   -6.1808    1.7939 C   0  0  0  0  0  0  0  0  0  0  0  0
    0.8352   -5.6584    2.6643 C   0  0  0  0  0  0  0  0  0  0  0  0
   -0.6950   -5.2982    1.8857 S   0  0  0  0  0  0  0  0  0  0  0  0
   -0.5701   -3.5727    1.7643 C   0  0  0  0  0  0  0  0  0  0  0  0
    0.3475   -2.8949    1.1487 N   0  0  0  0  0  0  0  0  0  0  0  0
    0.2802   -1.5159    1.2824 C   0  0  0  0  0  0  0  0  0  0  0  0
   -0.6412   -0.8235    2.0188 C   0  0  0  0  0  0  0  0  0  0  0  0
   -0.7399    0.5812    2.0644 N   0  0  0  0  0  0  0  0  0  0  0  0
   -0.7802    1.2292    3.4103 C   0  0  0  0  0  0  0  0  0  0  0  0
   -1.2903    2.6673    3.3205 C   0  0  0  0  0  0  0  0  0  0  0  0
   -1.8533    3.0625    1.9405 C   0  0  0  0  0  0  0  0  0  0  0  0
   -0.7354    2.7990    0.9058 C   0  0  0  0  0  0  0  0  0  0  0  0
   -0.0075    1.4413    1.0865 C   0  0  0  0  0  0  0  0  0  0  0  0
   -2.2791    4.5360    1.9439 C   0  0  0  0  0  0  0  0  0  0  0  0
   -3.2642    4.6852    0.9192 O   0  0  0  0  0  0  0  0  0  0  0  0
   -3.9681    3.4289    0.7507 C   0  0  1  0  0  0  0  0  0  0  0  0
   -4.0464    3.1483   -0.7492 C   0  0  0  0  0  0  0  0  0  0  0  0
   -3.2164    2.3981    1.6143 C   0  0  1  0  0  0  0  0  0  0  0  0
   -3.1190    1.0587    1.0013 N   0  0  0  0  0  0  0  0  0  0  0  0
   -1.5966   -1.5717    2.6671 N   0  0  0  0  0  0  0  0  0  0  0  0
   -1.7033   -2.9272    2.5475 C   0  0  0  0  0  0  0  0  0  0  0  0
   -2.7242   -3.5307    3.0776 N   0  0  0  0  0  0  0  0  0  0  0  0
    1.0474   -5.4769    3.9905 C   0  0  0  0  0  0  0  0  0  0  0  0
   -0.1088   -4.9025    5.1279 Cl  0  0  0  0  0  0  0  0  0  0  0  0
    2.4253   -5.8248    4.5275 C   0  0  0  0  0  0  0  0  0  0  0  0
    2.7461   -5.7459    5.7843 N   0  0  0  0  0  0  0  0  0  0  0  0
    4.2727   -6.5532    4.0198 H   0  0  0  0  0  0  0  0  0  0  0  0
    3.9352   -6.8230    1.7143 H   0  0  0  0  0  0  0  0  0  0  0  0
    1.6991   -6.3487    0.7425 H   0  0  0  0  0  0  0  0  0  0  0  0
    1.0601   -0.9951    0.7277 H   0  0  0  0  0  0  0  0  0  0  0  0
   -1.4475    0.6788    4.0835 H   0  0  0  0  0  0  0  0  0  0  0  0
    0.2173    1.1894    3.8719 H   0  0  0  0  0  0  0  0  0  0  0  0
   -2.0219    2.8252    4.1075 H   0  0  0  0  0  0  0  0  0  0  0  0
   -0.4613    3.3280    3.5675 H   0  0  0  0  0  0  0  0  0  0  0  0
    0.0252    3.5838    0.9755 H   0  0  0  0  0  0  0  0  0  0  0  0
   -1.1253    2.8685   -0.1135 H   0  0  0  0  0  0  0  0  0  0  0  0
    0.0284    0.9548    0.1000 H   0  0  0  0  0  0  0  0  0  0  0  0
    1.0213    1.6105    1.4187 H   0  0  0  0  0  0  0  0  0  0  0  0
   -1.4480    5.2286    1.7622 H   0  0  0  0  0  0  0  0  0  0  0  0
   -2.7425    4.8217    2.8950 H   0  0  0  0  0  0  0  0  0  0  0  0
   -4.9930    3.5548    1.1537 H   0  0  0  0  0  0  0  0  0  0  0  0
   -3.0805    3.3319   -1.2330 H   0  0  0  0  0  0  0  0  0  0  0  0
   -4.3734    2.1362   -0.9770 H   0  0  0  0  0  0  0  0  0  0  0  0
   -4.7559    3.8284   -1.2221 H   0  0  0  0  0  0  0  0  0  0  0  0
   -3.7822    2.2569    2.5415 H   0  0  0  0  0  0  0  0  0  0  0  0
   -2.7755    1.0654    0.0403 H   0  0  0  0  0  0  0  0  0  0  0  0
   -2.4039    0.5176    1.5116 H   0  0  0  0  0  0  0  0  0  0  0  0
   -3.9859    0.5119    1.0320 H   0  0  0  0  0  0  0  0  0  0  0  0
   -2.2028   -1.1565    3.3564 H   0  0  0  0  0  0  0  0  0  0  0  0
   -2.6537   -4.5459    2.9124 H   0  0  0  0  0  0  0  0  0  0  0  0
    1.9327   -5.4314    6.3301 H   0  0  0  0  0  0  0  0  0  0  0  0
  1  2  1  0
  2  3  2  0
  3  4  1  0
  4  5  1  0
  5  6  1  0
  6  7  2  0
  7  8  1  0
  8  9  2  0
  9 10  1  0
 10 11  1  0
 11 12  1  0
 12 13  1  0
 13 14  1  0
 14 15  1  0
 13 16  1  0
 16 17  1  0
 17 18  1  0
 18 19  1  0
 18 20  1  0
 20 21  1  0
  9 22  1  0
 22 23  1  0
 23 24  2  3
  4 25  2  0
 25 26  1  0
 25 27  1  0
 27 28  2  3
 27  1  1  0
 23  6  1  0
 15 10  1  0
 20 13  1  0
  1 29  1  0
  2 30  1  0
  3 31  1  0
  8 32  1  0
 11 33  1  0
 11 34  1  0
 12 35  1  0
 12 36  1  0
 14 37  1  0
 14 38  1  0
 15 39  1  0
 15 40  1  0
 16 41  1  0
 16 42  1  0
 18 43  1  1
 19 44  1  0
 19 45  1  0
 19 46  1  0
 20 47  1  1
 21 48  1  0
 21 49  1  0
 21 50  1  0
 22 51  1  0
 24 52  1  0
 28 53  1  0
M  CHG  1  21   1
M  END
>  <ScrubInfo>  (4) 
{"isomerGroup": 0, "isomerId": 3, "confId": 0, "nr_conformers:": 1, "nr_isomers:": 4}

$$$$
