
     RDKit          3D

 52 55  0  0  0  0  0  0  0  0999 V2000
   17.3640   39.7940    4.1560 C   0  0  0  0  0  0  0  0  0  0  0  0
   16.3940   40.4750    6.1170 C   0  0  0  0  0  0  0  0  0  0  0  0
   17.6310   40.5720    6.7650 C   0  0  0  0  0  0  0  0  0  0  0  0
   28.8790   42.5720    1.7890 O   0  0  0  0  0  0  0  0  0  0  0  0
   25.3880   39.8300    2.4310 C   0  0  0  0  0  0  0  0  0  0  0  0
   26.6180   40.3580    3.2250 C   0  0  0  0  0  0  0  0  0  0  0  0
   26.9510   41.8630    2.9370 C   0  0  2  0  0  0  0  0  0  0  0  0
   25.6630   42.7510    2.9100 C   0  0  0  0  0  0  0  0  0  0  0  0
   27.6330   41.9510    1.5510 C   0  0  0  0  0  0  0  0  0  0  0  0
   29.3200   42.1570    3.0680 C   0  0  2  0  0  0  0  0  0  0  0  0
   28.0570   42.3070    3.9190 C   0  0  1  0  0  0  0  0  0  0  0  0
   30.5630   42.9390    3.4980 C   0  0  0  0  0  0  0  0  0  0  0  0
   16.2510   40.0700    4.8530 N   0  0  0  0  0  0  0  0  0  0  0  0
   18.7860   40.3120    6.0320 C   0  0  0  0  0  0  0  0  0  0  0  0
   18.6530   39.8630    4.7130 C   0  0  0  0  0  0  0  0  0  0  0  0
   20.3390   40.4820    6.8380 S   0  0  0  0  0  0  0  0  0  0  0  0
   21.4610   40.5230    5.5090 C   0  0  0  0  0  0  0  0  0  0  0  0
   21.3650   41.6120    4.7130 N   0  0  0  0  0  0  0  0  0  0  0  0
   22.3050   41.6780    3.7600 C   0  0  0  0  0  0  0  0  0  0  0  0
   23.3010   40.6890    3.5730 C   0  0  0  0  0  0  0  0  0  0  0  0
   23.3830   39.6340    4.4200 N   0  0  0  0  0  0  0  0  0  0  0  0
   22.4610   39.5390    5.3790 C   0  0  0  0  0  0  0  0  0  0  0  0
   22.5850   38.4420    6.2210 N   0  0  0  0  0  0  0  0  0  0  0  0
   17.7300   41.0640    8.4130 Cl  0  0  0  0  0  0  0  0  0  0  0  0
   24.5740   42.1400    2.0080 C   0  0  0  0  0  0  0  0  0  0  0  0
   24.3310   40.8310    2.6120 N   0  0  0  0  0  0  0  0  0  0  0  0
   27.8870   43.6720    4.4760 N   0  0  0  0  0  0  0  0  0  0  0  0
   15.2390   40.7880    6.8020 N   0  0  0  0  0  0  0  0  0  0  0  0
   17.2632   39.5004    3.1007 H   0  0  0  0  0  0  0  0  0  0  0  0
   25.6373   39.7257    1.3647 H   0  0  0  0  0  0  0  0  0  0  0  0
   25.0712   38.8396    2.7898 H   0  0  0  0  0  0  0  0  0  0  0  0
   26.4122   40.2467    4.2998 H   0  0  0  0  0  0  0  0  0  0  0  0
   27.4882   39.7673    2.9028 H   0  0  0  0  0  0  0  0  0  0  0  0
   25.2699   42.8416    3.9334 H   0  0  0  0  0  0  0  0  0  0  0  0
   25.9327   43.7375    2.5050 H   0  0  0  0  0  0  0  0  0  0  0  0
   27.7777   40.9459    1.1280 H   0  0  0  0  0  0  0  0  0  0  0  0
   27.0243   42.5150    0.8289 H   0  0  0  0  0  0  0  0  0  0  0  0
   29.6915   41.1244    3.1443 H   0  0  0  0  0  0  0  0  0  0  0  0
   28.0631   41.7048    4.8395 H   0  0  0  0  0  0  0  0  0  0  0  0
   30.6142   42.9712    4.5963 H   0  0  0  0  0  0  0  0  0  0  0  0
   31.4625   42.4438    3.1034 H   0  0  0  0  0  0  0  0  0  0  0  0
   30.5059   43.9642    3.1034 H   0  0  0  0  0  0  0  0  0  0  0  0
   19.5363   39.5710    4.1260 H   0  0  0  0  0  0  0  0  0  0  0  0
   22.3027   42.5477    3.0865 H   0  0  0  0  0  0  0  0  0  0  0  0
   23.3409   37.7591    6.0691 H   0  0  0  0  0  0  0  0  0  0  0  0
   21.9211   38.3111    6.9975 H   0  0  0  0  0  0  0  0  0  0  0  0
   23.6619   42.7548    2.0201 H   0  0  0  0  0  0  0  0  0  0  0  0
   24.8756   42.0771    0.9520 H   0  0  0  0  0  0  0  0  0  0  0  0
   27.8927   43.6261    5.5050 H   0  0  0  0  0  0  0  0  0  0  0  0
   28.6597   44.2726    4.1548 H   0  0  0  0  0  0  0  0  0  0  0  0
   14.3258   40.7186    6.3306 H   0  0  0  0  0  0  0  0  0  0  0  0
   15.2894   41.0912    7.7851 H   0  0  0  0  0  0  0  0  0  0  0  0
  3  2  2  0
  6  5  1  0
  7  6  1  1
  8  7  1  0
  9  7  1  0
  9  4  1  0
 10  4  1  0
 11  7  1  0
 11 10  1  0
 12 10  1  0
 13  1  2  0
 13  2  1  0
 14  3  1  0
 15  1  1  0
 15 14  2  0
 16 14  1  0
 17 16  1  0
 18 17  2  0
 19 18  1  0
 20 19  2  0
 21 20  1  0
 22 17  1  0
 22 21  2  0
 23 22  1  0
 24  3  1  0
 25  8  1  0
 26 25  1  0
 26 20  1  0
 26  5  1  0
 27 11  1  0
 28  2  1  0
  1 29  1  0
  5 30  1  0
  5 31  1  0
  6 32  1  0
  6 33  1  0
  8 34  1  0
  8 35  1  0
  9 36  1  0
  9 37  1  0
 10 38  1  6
 11 39  1  1
 12 40  1  0
 12 41  1  0
 12 42  1  0
 15 43  1  0
 19 44  1  0
 23 45  1  0
 23 46  1  0
 25 47  1  0
 25 48  1  0
 27 49  1  0
 27 50  1  0
 28 51  1  0
 28 52  1  0
M  END
$$$$
