VKS
  CCTOOLS-0919241044

 52 55  0  0  1  0  0  0  0  0999 V2000
    5.8400    0.3640    1.9250 C   0  0  0  0  0
    5.0600    1.9070    0.3890 C   0  0  0  0  0
    4.3560    0.9260   -0.2980 C   0  0  0  0  0
   -6.7130    1.2020    0.5610 O   0  0  0  0  0
   -2.9260   -1.7310    0.2490 C   0  0  0  0  0
   -4.3370   -1.5770    0.8270 C   0  0  0  0  0
   -4.7860   -0.1300    0.6830 C   0  0  0  0  0
   -3.7910    0.8210    1.3330 C   0  0  0  0  0
   -6.1930    0.0640    1.2830 C   0  0  0  0  0
   -6.2870    1.0660   -0.8060 C   0  0  0  0  0
   -4.9910    0.2300   -0.8010 C   0  0  0  0  0
   -6.0120    2.4470   -1.4050 C   0  0  0  0  0
    5.7700    1.6000    1.4650 N   0  0  0  0  0
    4.4080   -0.3880    0.1600 C   0  0  0  0  0
    5.1700   -0.6640    1.2980 C   0  0  0  0  0
    3.5350   -1.6710   -0.6750 S   0  0  0  0  0
    1.8660   -1.4020   -0.1780 C   0  0  0  0  0
    1.5820   -0.4670    0.7150 N   0  0  0  0  0
    0.3280   -0.2650    1.0890 C   0  0  0  0  0
   -0.6930   -1.0320    0.5460 C   0  0  0  0  0
   -0.4160   -1.9720   -0.3510 N   0  0  0  0  0
    0.8370   -2.1740   -0.7320 C   0  0  0  0  0
    1.1310   -3.1570   -1.6720 N   0  0  0  0  0
    3.4270    1.3320   -1.7070 CL  0  0  0  0  0
   -2.3990    0.5860    0.7380 C   0  0  0  0  0
   -2.0110   -0.8160    0.9430 N   0  0  0  0  0
   -3.8620    1.0270   -1.2980 N   0  0  0  0  0
    5.0180    3.2240   -0.0570 N   0  0  0  0  0
    6.4340    0.1550    2.8020 H   0  0  0  0  0
   -2.5870   -2.7580    0.3860 H   0  0  0  0  0
   -2.9420   -1.4920   -0.8150 H   0  0  0  0  0
   -5.0240   -2.2270    0.2870 H   0  0  0  0  0
   -4.3290   -1.8520    1.8820 H   0  0  0  0  0
   -4.0970    1.8500    1.1470 H   0  0  0  0  0
   -3.7630    0.6390    2.4080 H   0  0  0  0  0
   -6.1290    0.2820    2.3490 H   0  0  0  0  0
   -6.8100   -0.8170    1.1070 H   0  0  0  0  0
   -7.0570    0.5580   -1.3860 H   0  0  0  0  0
   -5.1160   -0.6730   -1.3990 H   0  0  0  0  0
   -5.2470    2.9530   -0.8160 H   0  0  0  0  0
   -5.6650    2.3350   -2.4320 H   0  0  0  0  0
   -6.9290    3.0370   -1.3940 H   0  0  0  0  0
    5.2340   -1.6710    1.6820 H   0  0  0  0  0
    0.1000    0.4980    1.8180 H   0  0  0  0  0
    0.4190   -3.6960   -2.0490 H   0  0  0  0  0
    2.0490   -3.3030   -1.9490 H   0  0  0  0  0
   -2.4190    0.8050   -0.3300 H   0  0  0  0  0
   -1.6780    1.2380    1.2300 H   0  0  0  0  0
   -3.9890    1.2660   -2.2700 H   0  0  0  0  0
   -3.7270    1.8540   -0.7370 H   0  0  0  0  0
    4.5000    3.4540   -0.8440 H   0  0  0  0  0
    5.5070    3.9130    0.4200 H   0  0  0  0  0
  1 15  2  0  0  0
  1 13  1  0  0  0
  1 29  1  0  0  0
  2  3  1  0  0  0
  2 28  1  0  0  0
  3 24  1  0  0  0
  4 10  1  0  0  0
  5 26  1  0  0  0
  5  6  1  0  0  0
  5 30  1  0  0  0
  5 31  1  0  0  0
  6 32  1  0  0  0
  6 33  1  0  0  0
  7  6  1  0  0  0
  7 11  1  0  0  0
  8  7  1  0  0  0
  8 34  1  0  0  0
  8 35  1  0  0  0
  9  4  1  0  0  0
  9  7  1  0  0  0
  9 36  1  0  0  0
  9 37  1  0  0  0
 10 12  1  0  0  0
 10 11  1  0  0  0
 10 38  1  0  0  0
 11 27  1  0  0  0
 11 39  1  0  0  0
 12 40  1  0  0  0
 12 41  1  0  0  0
 12 42  1  0  0  0
 13  2  2  0  0  0
 14  3  2  0  0  0
 14 16  1  0  0  0
 15 14  1  0  0  0
 15 43  1  0  0  0
 17 16  1  0  0  0
 18 17  2  0  0  0
 19 18  1  0  0  0
 19 44  1  0  0  0
 20 19  2  0  0  0
 20 21  1  0  0  0
 21 22  2  0  0  0
 22 17  1  0  0  0
 22 23  1  0  0  0
 23 45  1  0  0  0
 23 46  1  0  0  0
 25 26  1  0  0  0
 25  8  1  0  0  0
 25 47  1  0  0  0
 25 48  1  0  0  0
 26 20  1  0  0  0
 27 49  1  0  0  0
 27 50  1  0  0  0
 28 51  1  0  0  0
 28 52  1  0  0  0
M  END
$$$$
