
     RDKit          3D

 52 56  0  0  0  0  0  0  0  0999 V2000
    5.5583   -0.5914    1.7821 C   0  0  0  0  0  0  0  0  0  0  0  0
    5.0849    0.5184    2.4282 N   0  0  0  0  0  0  0  0  0  0  0  0
    0.6511    0.6543   -0.9916 N   0  0  0  0  0  0  0  0  0  0  0  0
    0.9077    3.0758   -1.4599 C   0  0  0  0  0  0  0  0  0  0  0  0
   -0.7087    0.2735   -0.6512 C   0  0  0  0  0  0  0  0  0  0  0  0
   -3.3869   -0.4145    0.0947 C   0  0  0  0  0  0  0  0  0  0  0  0
    1.7386    4.1193   -1.9969 C   0  0  0  0  0  0  0  0  0  0  0  0
    1.6094    5.3125   -1.3210 C   0  0  0  0  0  0  0  0  0  0  0  0
    0.1794    3.5574   -0.3835 C   0  0  0  0  0  0  0  0  0  0  0  0
    1.7659   -0.0349   -0.4593 C   0  0  0  0  0  0  0  0  0  0  0  0
    3.0936    0.7051   -0.4730 C   0  0  0  0  0  0  0  0  0  0  0  0
    4.8653   -0.7703    0.5904 C   0  0  0  0  0  0  0  0  0  0  0  0
    5.1310   -1.8214   -0.2934 C   0  0  0  0  0  0  0  0  0  0  0  0
    6.1507   -2.7088    0.0749 C   0  0  0  0  0  0  0  0  0  0  0  0
    6.8648   -2.5474    1.2652 C   0  0  0  0  0  0  0  0  0  0  0  0
    6.5764   -1.4889    2.1354 C   0  0  0  0  0  0  0  0  0  0  0  0
    0.8708    1.6793   -2.0226 C   0  0  0  0  0  0  0  0  0  0  0  0
   -0.9891   -0.5866    0.4208 C   0  0  0  0  0  0  0  0  0  0  0  0
   -2.3011   -0.9356    0.7827 C   0  0  0  0  0  0  0  0  0  0  0  0
   -5.2037   -1.5807    1.3469 C   0  0  0  0  0  0  0  0  0  0  0  0
   -6.6925   -1.6857    1.3655 C   0  0  0  0  0  0  0  0  0  0  0  0
   -7.3285   -3.0198    1.0289 C   0  0  0  0  0  0  0  0  0  0  0  0
   -7.5152   -1.8491    0.1098 C   0  0  0  0  0  0  0  0  0  0  0  0
   -3.1363    0.4661   -0.9570 C   0  0  0  0  0  0  0  0  0  0  0  0
   -1.8220    0.8025   -1.3210 C   0  0  0  0  0  0  0  0  0  0  0  0
    3.9774    0.2746    0.5924 N   0  0  0  0  0  0  0  0  0  0  0  0
    4.1235    1.0518    1.6844 N   0  0  0  0  0  0  0  0  0  0  0  0
   -4.7321   -0.7103    0.3902 N   0  0  0  0  0  0  0  0  0  0  0  0
    1.7166   -1.1966   -0.0478 O   0  0  0  0  0  0  0  0  0  0  0  0
   -4.5602   -2.2254    2.1606 O   0  0  0  0  0  0  0  0  0  0  0  0
    0.4944    5.2026   -0.0385 S   0  0  0  0  0  0  0  0  0  0  0  0
    2.4114    3.9998   -2.8410 H   0  0  0  0  0  0  0  0  0  0  0  0
    2.1241    6.2473   -1.5106 H   0  0  0  0  0  0  0  0  0  0  0  0
   -0.5253    3.0243    0.2420 H   0  0  0  0  0  0  0  0  0  0  0  0
    3.6052    0.5202   -1.4225 H   0  0  0  0  0  0  0  0  0  0  0  0
    2.9560    1.7790   -0.3421 H   0  0  0  0  0  0  0  0  0  0  0  0
    4.5677   -1.9647   -1.2085 H   0  0  0  0  0  0  0  0  0  0  0  0
    6.3877   -3.5454   -0.5785 H   0  0  0  0  0  0  0  0  0  0  0  0
    7.6509   -3.2547    1.5249 H   0  0  0  0  0  0  0  0  0  0  0  0
    7.1229   -1.3590    3.0613 H   0  0  0  0  0  0  0  0  0  0  0  0
    1.8274    1.4733   -2.5194 H   0  0  0  0  0  0  0  0  0  0  0  0
    0.1376    1.5996   -2.8301 H   0  0  0  0  0  0  0  0  0  0  0  0
   -0.2049   -1.0111    1.0376 H   0  0  0  0  0  0  0  0  0  0  0  0
   -2.4282   -1.6125    1.6220 H   0  0  0  0  0  0  0  0  0  0  0  0
   -7.1430   -1.1452    2.1913 H   0  0  0  0  0  0  0  0  0  0  0  0
   -8.1676   -3.3466    1.6331 H   0  0  0  0  0  0  0  0  0  0  0  0
   -6.6794   -3.8266    0.7060 H   0  0  0  0  0  0  0  0  0  0  0  0
   -7.0198   -1.8873   -0.8517 H   0  0  0  0  0  0  0  0  0  0  0  0
   -8.4912   -1.3798    0.0869 H   0  0  0  0  0  0  0  0  0  0  0  0
   -3.9564    0.9175   -1.5124 H   0  0  0  0  0  0  0  0  0  0  0  0
   -1.7276    1.5068   -2.1394 H   0  0  0  0  0  0  0  0  0  0  0  0
   -5.4309   -0.2605   -0.1856 H   0  0  0  0  0  0  0  0  0  0  0  0
  2  1  1  0
  5  3  1  0
  7  4  1  0
  8  7  2  0
  9  4  2  0
 10  3  1  0
 11 10  1  0
 12  1  2  0
 13 12  1  0
 14 13  2  0
 15 14  1  0
 16 15  2  0
 16  1  1  0
 17  4  1  0
 17  3  1  0
 18  5  2  0
 19 18  1  0
 19  6  2  0
 21 20  1  0
 22 21  1  0
 23 21  1  0
 23 22  1  0
 24  6  1  0
 25  5  1  0
 25 24  2  0
 26 11  1  0
 26 12  1  0
 27  2  2  0
 27 26  1  0
 28 20  1  0
 28  6  1  0
 29 10  2  0
 30 20  2  0
 31  8  1  0
 31  9  1  0
  7 32  1  0
  8 33  1  0
  9 34  1  0
 11 35  1  0
 11 36  1  0
 13 37  1  0
 14 38  1  0
 15 39  1  0
 16 40  1  0
 17 41  1  0
 17 42  1  0
 18 43  1  0
 19 44  1  0
 21 45  1  0
 22 46  1  0
 22 47  1  0
 23 48  1  0
 23 49  1  0
 24 50  1  0
 25 51  1  0
 28 52  1  0
M  END
>  <ScrubInfo>  (1) 
{"isomerGroup": 0, "isomerId": 0, "confId": 0, "nr_conformers:": 1, "nr_isomers:": 1}

$$$$
