
     RDKit          3D

 52 56  0  0  0  0  0  0  0  0999 V2000
   22.1100    1.1250   18.6290 C   0  0  0  0  0  0  0  0  0  0  0  0
   21.1230    0.6020   17.8220 N   0  0  0  0  0  0  0  0  0  0  0  0
   25.5760    0.1650   14.0050 N   0  0  0  0  0  0  0  0  0  0  0  0
   25.1860    0.6510   11.6850 C   0  0  0  0  0  0  0  0  0  0  0  0
   26.2970   -1.1030   14.2330 C   0  0  0  0  0  0  0  0  0  0  0  0
   27.6520   -3.4870   14.6740 C   0  0  0  0  0  0  0  0  0  0  0  0
   24.9460    1.4720   10.4180 C   0  0  0  0  0  0  0  0  0  0  0  0
   24.1250    0.6970    9.5180 C   0  0  0  0  0  0  0  0  0  0  0  0
   24.5110   -0.6160   11.5710 C   0  0  0  0  0  0  0  0  0  0  0  0
   24.4180    0.4830   14.8670 C   0  0  0  0  0  0  0  0  0  0  0  0
   24.0160   -0.5260   15.9810 C   0  0  0  0  0  0  0  0  0  0  0  0
   23.3280    0.7660   18.0420 C   0  0  0  0  0  0  0  0  0  0  0  0
   24.5530    1.1700   18.6450 C   0  0  0  0  0  0  0  0  0  0  0  0
   24.5420    1.9260   19.8240 C   0  0  0  0  0  0  0  0  0  0  0  0
   23.3110    2.2780   20.4180 C   0  0  0  0  0  0  0  0  0  0  0  0
   22.1000    1.8850   19.8270 C   0  0  0  0  0  0  0  0  0  0  0  0
   25.9980    1.0790   12.9240 C   0  0  0  0  0  0  0  0  0  0  0  0
   25.8130   -2.3020   13.7010 C   0  0  0  0  0  0  0  0  0  0  0  0
   26.4870   -3.5020   13.9120 C   0  0  0  0  0  0  0  0  0  0  0  0
   29.7940   -4.8630   14.6950 C   0  0  0  0  0  0  0  0  0  0  0  0
   30.4630   -6.2160   14.9970 C   0  0  2  0  0  0  0  0  0  0  0  0
   30.0740   -6.7810   16.3630 C   0  0  0  0  0  0  0  0  0  0  0  0
   31.4840   -6.2300   16.1390 C   0  0  0  0  0  0  0  0  0  0  0  0
   28.1370   -2.2880   15.2160 C   0  0  0  0  0  0  0  0  0  0  0  0
   27.4640   -1.0920   14.9970 C   0  0  0  0  0  0  0  0  0  0  0  0
   23.0330    0.0450   16.9090 N   0  0  0  0  0  0  0  0  0  0  0  0
   21.7060   -0.0420   16.7890 N   0  0  0  0  0  0  0  0  0  0  0  0
   28.3600   -4.7450   14.9220 N   0  0  0  0  0  0  0  0  0  0  0  0
   23.8210    1.5010   14.7080 O   0  0  0  0  0  0  0  0  0  0  0  0
   30.4220   -3.9430   14.2880 O   0  0  0  0  0  0  0  0  0  0  0  0
   23.7500   -0.7580   10.1500 S   0  0  0  0  0  0  0  0  0  0  0  0
   25.3336    2.4831   10.2245 H   0  0  0  0  0  0  0  0  0  0  0  0
   23.7937    1.0452    8.5286 H   0  0  0  0  0  0  0  0  0  0  0  0
   24.5125   -1.3904   12.3522 H   0  0  0  0  0  0  0  0  0  0  0  0
   23.5826   -1.4209   15.5105 H   0  0  0  0  0  0  0  0  0  0  0  0
   24.9200   -0.7775   16.5550 H   0  0  0  0  0  0  0  0  0  0  0  0
   25.5108    0.8875   18.1836 H   0  0  0  0  0  0  0  0  0  0  0  0
   25.4887    2.2441   20.2851 H   0  0  0  0  0  0  0  0  0  0  0  0
   23.3006    2.8635   21.3492 H   0  0  0  0  0  0  0  0  0  0  0  0
   21.1438    2.1661   20.2924 H   0  0  0  0  0  0  0  0  0  0  0  0
   27.0762    0.9759   12.7319 H   0  0  0  0  0  0  0  0  0  0  0  0
   25.8194    2.1323   13.1861 H   0  0  0  0  0  0  0  0  0  0  0  0
   24.8869   -2.2972   13.1075 H   0  0  0  0  0  0  0  0  0  0  0  0
   26.1069   -4.4421   13.4856 H   0  0  0  0  0  0  0  0  0  0  0  0
   30.4793   -6.5763   13.9578 H   0  0  0  0  0  0  0  0  0  0  0  0
   29.3653   -6.2343   17.0024 H   0  0  0  0  0  0  0  0  0  0  0  0
   29.6603   -7.7357   16.7200 H   0  0  0  0  0  0  0  0  0  0  0  0
   32.3432   -6.9158   16.1007 H   0  0  0  0  0  0  0  0  0  0  0  0
   32.1112   -5.4725   16.6318 H   0  0  0  0  0  0  0  0  0  0  0  0
   29.0570   -2.2942   15.8190 H   0  0  0  0  0  0  0  0  0  0  0  0
   27.8458   -0.1510   15.4197 H   0  0  0  0  0  0  0  0  0  0  0  0
   27.8338   -5.5619   15.2635 H   0  0  0  0  0  0  0  0  0  0  0  0
  2  1  1  0
  5  3  1  0
  7  4  1  0
  8  7  2  0
  9  4  2  0
 10  3  1  0
 11 10  1  0
 12  1  2  0
 13 12  1  0
 14 13  2  0
 15 14  1  0
 16 15  2  0
 16  1  1  0
 17  4  1  0
 17  3  1  0
 18  5  2  0
 19 18  1  0
 19  6  2  0
 21 20  1  0
 22 21  1  0
 23 21  1  0
 23 22  1  0
 24  6  1  0
 25  5  1  0
 25 24  2  0
 26 11  1  0
 26 12  1  0
 27  2  2  0
 27 26  1  0
 28 20  1  0
 28  6  1  0
 29 10  2  0
 30 20  2  0
 31  8  1  0
 31  9  1  0
  7 32  1  0
  8 33  1  0
  9 34  1  0
 11 35  1  0
 11 36  1  0
 13 37  1  0
 14 38  1  0
 15 39  1  0
 16 40  1  0
 17 41  1  0
 17 42  1  0
 18 43  1  0
 19 44  1  0
 21 45  1  6
 22 46  1  0
 22 47  1  0
 23 48  1  0
 23 49  1  0
 24 50  1  0
 25 51  1  0
 28 52  1  0
M  END
$$$$
