Y6J
  CCTOOLS-0919241038

 52 56  0  0  0  0  0  0  0  0999 V2000
   -5.2310    2.1850   -0.0870 C   0  0  0  0  0
   -4.8910    2.9410    0.9760 N   0  0  0  0  0
   -0.2000   -0.2520    1.0300 N   0  0  0  0  0
   -0.5760   -2.6390    0.8070 C   0  0  0  0  0
    1.0500    0.1170    0.5180 C   0  0  0  0  0
    3.5230    0.8440   -0.4940 C   0  0  0  0  0
    0.4640   -3.3060    0.1840 C   0  0  0  0  0
    0.0890   -4.2850   -0.6420 C   0  0  0  0  0
   -1.7950   -3.0780    0.4920 C   0  0  0  0  0
   -1.2690    0.5480    0.8390 C   0  0  0  0  0
   -2.5900    0.2060    1.4790 C   0  0  0  0  0
   -4.4240    1.0350   -0.0690 C   0  0  0  0  0
   -4.5690    0.0700   -1.0610 C   0  0  0  0  0
   -5.4970    0.2460   -2.0490 C   0  0  0  0  0
   -6.2980    1.3800   -2.0720 C   0  0  0  0  0
   -6.1750    2.3410   -1.1120 C   0  0  0  0  0
   -0.3480   -1.5050    1.7740 C   0  0  0  0  0
    2.1770   -0.6310    0.8350 C   0  0  0  0  0
    3.4100   -0.2680    0.3300 C   0  0  0  0  0
    5.8830    1.0520   -0.2560 C   0  0  0  0  0
    7.2130    1.5440   -0.7640 C   0  0  0  0  0
    8.2610    0.4930   -1.1330 C   0  0  0  0  0
    8.4340    1.3330    0.1340 C   0  0  0  0  0
    2.3950    1.5890   -0.8140 C   0  0  0  0  0
    1.1630    1.2260   -0.3100 C   0  0  0  0  0
   -3.6090    1.1580    1.0320 N   0  0  0  0  0
   -3.9500    2.3730    1.6450 N   0  0  0  0  0
    4.7740    1.2120   -1.0050 N   0  0  0  0  0
   -1.1670    1.5420    0.1520 O   0  0  0  0  0
    5.8090    0.5120    0.8280 O   0  0  0  0  0
   -1.6660   -4.4000   -0.6610 S   0  0  0  0  0
    1.5000   -3.0540    0.3520 H   0  0  0  0  0
    0.7600   -4.9080   -1.2140 H   0  0  0  0  0
   -2.7200   -2.6810    0.8830 H   0  0  0  0  0
   -2.8830   -0.8030    1.1900 H   0  0  0  0  0
   -2.4930    0.2600    2.5630 H   0  0  0  0  0
   -3.9500   -0.8150   -1.0500 H   0  0  0  0  0
   -5.6080   -0.5040   -2.8180 H   0  0  0  0  0
   -7.0250    1.5040   -2.8600 H   0  0  0  0  0
   -6.8070    3.2170   -1.1370 H   0  0  0  0  0
    0.5590   -1.6950    2.3490 H   0  0  0  0  0
   -1.1980   -1.4290    2.4510 H   0  0  0  0  0
    2.0890   -1.4960    1.4750 H   0  0  0  0  0
    4.2860   -0.8490    0.5760 H   0  0  0  0  0
    7.1800    2.4540   -1.3620 H   0  0  0  0  0
    7.9880   -0.5550   -1.0080 H   0  0  0  0  0
    8.9180    0.7100   -1.9750 H   0  0  0  0  0
    9.2050    2.1040    0.1250 H   0  0  0  0  0
    8.2750    0.8380    1.0920 H   0  0  0  0  0
    2.4830    2.4510   -1.4580 H   0  0  0  0  0
    0.2860    1.8040   -0.5590 H   0  0  0  0  0
    4.8420    1.5820   -1.8990 H   0  0  0  0  0
  1 16  1  0  0  0
  2  1  1  0  0  0
  3  5  1  0  0  0
  3 10  1  0  0  0
  4 17  1  0  0  0
  5 25  2  0  0  0
  6 28  1  0  0  0
  6 24  2  0  0  0
  7  4  1  0  0  0
  7 32  1  0  0  0
  8 31  1  0  0  0
  8  7  2  0  0  0
  8 33  1  0  0  0
  9  4  2  0  0  0
  9 34  1  0  0  0
 10 11  1  0  0  0
 11 26  1  0  0  0
 11 35  1  0  0  0
 11 36  1  0  0  0
 12  1  2  0  0  0
 12 13  1  0  0  0
 13 14  2  0  0  0
 13 37  1  0  0  0
 14 15  1  0  0  0
 14 38  1  0  0  0
 15 39  1  0  0  0
 16 15  2  0  0  0
 16 40  1  0  0  0
 17  3  1  0  0  0
 17 41  1  0  0  0
 17 42  1  0  0  0
 18 19  2  0  0  0
 18  5  1  0  0  0
 18 43  1  0  0  0
 19  6  1  0  0  0
 19 44  1  0  0  0
 20 28  1  0  0  0
 20 21  1  0  0  0
 21 23  1  0  0  0
 21 22  1  0  0  0
 21 45  1  0  0  0
 22 46  1  0  0  0
 22 47  1  0  0  0
 23 22  1  0  0  0
 23 48  1  0  0  0
 23 49  1  0  0  0
 24 50  1  0  0  0
 25 24  1  0  0  0
 25 51  1  0  0  0
 26 12  1  0  0  0
 27 26  1  0  0  0
 27  2  2  0  0  0
 28 52  1  0  0  0
 29 10  2  0  0  0
 30 20  2  0  0  0
 31  9  1  0  0  0
M  END
$$$$
