
     RDKit          3D

 31 35  0  0  0  0  0  0  0  0999 V2000
   22.1100    1.1250   18.6290 C   0  0  0  0  0  0  0  0  0  0  0  0
   21.1230    0.6020   17.8220 N   0  0  0  0  0  0  0  0  0  0  0  0
   25.5760    0.1650   14.0050 N   0  0  0  0  0  0  0  0  0  0  0  0
   25.1860    0.6510   11.6850 C   0  0  0  0  0  0  0  0  0  0  0  0
   26.2970   -1.1030   14.2330 C   0  0  0  0  0  0  0  0  0  0  0  0
   27.6520   -3.4870   14.6740 C   0  0  0  0  0  0  0  0  0  0  0  0
   24.9460    1.4720   10.4180 C   0  0  0  0  0  0  0  0  0  0  0  0
   24.1250    0.6970    9.5180 C   0  0  0  0  0  0  0  0  0  0  0  0
   24.5110   -0.6160   11.5710 C   0  0  0  0  0  0  0  0  0  0  0  0
   24.4180    0.4830   14.8670 C   0  0  0  0  0  0  0  0  0  0  0  0
   24.0160   -0.5260   15.9810 C   0  0  0  0  0  0  0  0  0  0  0  0
   23.3280    0.7660   18.0420 C   0  0  0  0  0  0  0  0  0  0  0  0
   24.5530    1.1700   18.6450 C   0  0  0  0  0  0  0  0  0  0  0  0
   24.5420    1.9260   19.8240 C   0  0  0  0  0  0  0  0  0  0  0  0
   23.3110    2.2780   20.4180 C   0  0  0  0  0  0  0  0  0  0  0  0
   22.1000    1.8850   19.8270 C   0  0  0  0  0  0  0  0  0  0  0  0
   25.9980    1.0790   12.9240 C   0  0  0  0  0  0  0  0  0  0  0  0
   25.8130   -2.3020   13.7010 C   0  0  0  0  0  0  0  0  0  0  0  0
   26.4870   -3.5020   13.9120 C   0  0  0  0  0  0  0  0  0  0  0  0
   29.7940   -4.8630   14.6950 C   0  0  0  0  0  0  0  0  0  0  0  0
   30.4630   -6.2160   14.9970 C   0  0  0  0  0  0  0  0  0  0  0  0
   30.0740   -6.7810   16.3630 C   0  0  0  0  0  0  0  0  0  0  0  0
   31.4840   -6.2300   16.1390 C   0  0  0  0  0  0  0  0  0  0  0  0
   28.1370   -2.2880   15.2160 C   0  0  0  0  0  0  0  0  0  0  0  0
   27.4640   -1.0920   14.9970 C   0  0  0  0  0  0  0  0  0  0  0  0
   23.0330    0.0450   16.9090 N   0  0  0  0  0  0  0  0  0  0  0  0
   21.7060   -0.0420   16.7890 N   0  0  0  0  0  0  0  0  0  0  0  0
   28.3600   -4.7450   14.9220 N   0  0  0  0  0  0  0  0  0  0  0  0
   23.8210    1.5010   14.7080 O   0  0  0  0  0  0  0  0  0  0  0  0
   30.4220   -3.9430   14.2880 O   0  0  0  0  0  0  0  0  0  0  0  0
   23.7500   -0.7580   10.1500 S   0  0  0  0  0  0  0  0  0  0  0  0
  2  1  1  0
  5  3  1  0
  7  4  1  0
  8  7  2  0
  9  4  2  0
 10  3  1  0
 11 10  1  0
 12  1  2  0
 13 12  1  0
 14 13  2  0
 15 14  1  0
 16 15  2  0
 16  1  1  0
 17  4  1  0
 17  3  1  0
 18  5  2  0
 19 18  1  0
 19  6  2  0
 21 20  1  0
 22 21  1  0
 23 21  1  0
 23 22  1  0
 24  6  1  0
 25  5  1  0
 25 24  2  0
 26 11  1  0
 26 12  1  0
 27  2  2  0
 27 26  1  0
 28 20  2  3
 28  6  1  0
 29 10  2  0
 30 20  1  0
 31  8  1  0
 31  9  1  0
M  END
$$$$

     RDKit          3D

 31 35  0  0  0  0  0  0  0  0999 V2000
   22.1100    1.1250   18.6290 C   0  0  0  0  0  0  0  0  0  0  0  0
   21.1230    0.6020   17.8220 N   0  0  0  0  0  0  0  0  0  0  0  0
   25.5760    0.1650   14.0050 N   0  0  0  0  0  0  0  0  0  0  0  0
   25.1860    0.6510   11.6850 C   0  0  0  0  0  0  0  0  0  0  0  0
   26.2970   -1.1030   14.2330 C   0  0  0  0  0  0  0  0  0  0  0  0
   27.6520   -3.4870   14.6740 C   0  0  0  0  0  0  0  0  0  0  0  0
   24.9460    1.4720   10.4180 C   0  0  0  0  0  0  0  0  0  0  0  0
   24.1250    0.6970    9.5180 C   0  0  0  0  0  0  0  0  0  0  0  0
   24.5110   -0.6160   11.5710 C   0  0  0  0  0  0  0  0  0  0  0  0
   24.4180    0.4830   14.8670 C   0  0  0  0  0  0  0  0  0  0  0  0
   24.0160   -0.5260   15.9810 C   0  0  0  0  0  0  0  0  0  0  0  0
   23.3280    0.7660   18.0420 C   0  0  0  0  0  0  0  0  0  0  0  0
   24.5530    1.1700   18.6450 C   0  0  0  0  0  0  0  0  0  0  0  0
   24.5420    1.9260   19.8240 C   0  0  0  0  0  0  0  0  0  0  0  0
   23.3110    2.2780   20.4180 C   0  0  0  0  0  0  0  0  0  0  0  0
   22.1000    1.8850   19.8270 C   0  0  0  0  0  0  0  0  0  0  0  0
   25.9980    1.0790   12.9240 C   0  0  0  0  0  0  0  0  0  0  0  0
   25.8130   -2.3020   13.7010 C   0  0  0  0  0  0  0  0  0  0  0  0
   26.4870   -3.5020   13.9120 C   0  0  0  0  0  0  0  0  0  0  0  0
   29.7940   -4.8630   14.6950 C   0  0  0  0  0  0  0  0  0  0  0  0
   30.4630   -6.2160   14.9970 C   0  0  0  0  0  0  0  0  0  0  0  0
   30.0740   -6.7810   16.3630 C   0  0  0  0  0  0  0  0  0  0  0  0
   31.4840   -6.2300   16.1390 C   0  0  0  0  0  0  0  0  0  0  0  0
   28.1370   -2.2880   15.2160 C   0  0  0  0  0  0  0  0  0  0  0  0
   27.4640   -1.0920   14.9970 C   0  0  0  0  0  0  0  0  0  0  0  0
   23.0330    0.0450   16.9090 N   0  0  0  0  0  0  0  0  0  0  0  0
   21.7060   -0.0420   16.7890 N   0  0  0  0  0  0  0  0  0  0  0  0
   28.3600   -4.7450   14.9220 N   0  0  0  0  0  0  0  0  0  0  0  0
   23.8210    1.5010   14.7080 O   0  0  0  0  0  0  0  0  0  0  0  0
   30.4220   -3.9430   14.2880 O   0  0  0  0  0  0  0  0  0  0  0  0
   23.7500   -0.7580   10.1500 S   0  0  0  0  0  0  0  0  0  0  0  0
  2  1  1  0
  5  3  1  0
  7  4  1  0
  8  7  2  0
  9  4  2  0
 10  3  1  0
 11 10  1  0
 12  1  2  0
 13 12  1  0
 14 13  2  0
 15 14  1  0
 16 15  2  0
 16  1  1  0
 17  4  1  0
 17  3  1  0
 18  5  2  0
 19 18  1  0
 19  6  2  0
 21 20  2  3
 22 21  1  0
 23 21  1  0
 23 22  1  0
 24  6  1  0
 25  5  1  0
 25 24  2  0
 26 11  1  0
 26 12  1  0
 27  2  2  0
 27 26  1  0
 28 20  1  0
 28  6  1  0
 29 10  2  0
 30 20  1  0
 31  8  1  0
 31  9  1  0
M  END
$$$$

     RDKit          3D

 31 35  0  0  0  0  0  0  0  0999 V2000
   22.1100    1.1250   18.6290 C   0  0  0  0  0  0  0  0  0  0  0  0
   21.1230    0.6020   17.8220 N   0  0  0  0  0  0  0  0  0  0  0  0
   25.5760    0.1650   14.0050 N   0  0  0  0  0  0  0  0  0  0  0  0
   25.1860    0.6510   11.6850 C   0  0  0  0  0  0  0  0  0  0  0  0
   26.2970   -1.1030   14.2330 C   0  0  0  0  0  0  0  0  0  0  0  0
   27.6520   -3.4870   14.6740 C   0  0  0  0  0  0  0  0  0  0  0  0
   24.9460    1.4720   10.4180 C   0  0  0  0  0  0  0  0  0  0  0  0
   24.1250    0.6970    9.5180 C   0  0  0  0  0  0  0  0  0  0  0  0
   24.5110   -0.6160   11.5710 C   0  0  0  0  0  0  0  0  0  0  0  0
   24.4180    0.4830   14.8670 C   0  0  0  0  0  0  0  0  0  0  0  0
   24.0160   -0.5260   15.9810 C   0  0  0  0  0  0  0  0  0  0  0  0
   23.3280    0.7660   18.0420 C   0  0  0  0  0  0  0  0  0  0  0  0
   24.5530    1.1700   18.6450 C   0  0  0  0  0  0  0  0  0  0  0  0
   24.5420    1.9260   19.8240 C   0  0  0  0  0  0  0  0  0  0  0  0
   23.3110    2.2780   20.4180 C   0  0  0  0  0  0  0  0  0  0  0  0
   22.1000    1.8850   19.8270 C   0  0  0  0  0  0  0  0  0  0  0  0
   25.9980    1.0790   12.9240 C   0  0  0  0  0  0  0  0  0  0  0  0
   25.8130   -2.3020   13.7010 C   0  0  0  0  0  0  0  0  0  0  0  0
   26.4870   -3.5020   13.9120 C   0  0  0  0  0  0  0  0  0  0  0  0
   29.7940   -4.8630   14.6950 C   0  0  0  0  0  0  0  0  0  0  0  0
   30.4630   -6.2160   14.9970 C   0  0  0  0  0  0  0  0  0  0  0  0
   30.0740   -6.7810   16.3630 C   0  0  0  0  0  0  0  0  0  0  0  0
   31.4840   -6.2300   16.1390 C   0  0  0  0  0  0  0  0  0  0  0  0
   28.1370   -2.2880   15.2160 C   0  0  0  0  0  0  0  0  0  0  0  0
   27.4640   -1.0920   14.9970 C   0  0  0  0  0  0  0  0  0  0  0  0
   23.0330    0.0450   16.9090 N   0  0  0  0  0  0  0  0  0  0  0  0
   21.7060   -0.0420   16.7890 N   0  0  0  0  0  0  0  0  0  0  0  0
   28.3600   -4.7450   14.9220 N   0  0  0  0  0  0  0  0  0  0  0  0
   23.8210    1.5010   14.7080 O   0  0  0  0  0  0  0  0  0  0  0  0
   30.4220   -3.9430   14.2880 O   0  0  0  0  0  0  0  0  0  0  0  0
   23.7500   -0.7580   10.1500 S   0  0  0  0  0  0  0  0  0  0  0  0
  2  1  1  0
  5  3  1  0
  7  4  1  0
  8  7  2  0
  9  4  2  0
 10  3  1  0
 11 10  1  0
 12  1  2  0
 13 12  1  0
 14 13  2  0
 15 14  1  0
 16 15  2  0
 16  1  1  0
 17  4  1  0
 17  3  1  0
 18  5  2  0
 19 18  1  0
 19  6  2  0
 21 20  1  0
 22 21  1  0
 23 21  1  0
 23 22  1  0
 24  6  1  0
 25  5  1  0
 25 24  2  0
 26 11  1  0
 26 12  1  0
 27  2  2  0
 27 26  1  0
 28 20  1  0
 28  6  1  0
 29 10  2  0
 30 20  2  0
 31  8  1  0
 31  9  1  0
M  END
$$$$

     RDKit          3D

 31 35  0  0  0  0  0  0  0  0999 V2000
   22.1100    1.1250   18.6290 C   0  0  0  0  0  0  0  0  0  0  0  0
   21.1230    0.6020   17.8220 N   0  0  0  0  0  0  0  0  0  0  0  0
   25.5760    0.1650   14.0050 N   0  0  0  0  0  0  0  0  0  0  0  0
   25.1860    0.6510   11.6850 C   0  0  0  0  0  0  0  0  0  0  0  0
   26.2970   -1.1030   14.2330 C   0  0  0  0  0  0  0  0  0  0  0  0
   27.6520   -3.4870   14.6740 C   0  0  0  0  0  0  0  0  0  0  0  0
   24.9460    1.4720   10.4180 C   0  0  0  0  0  0  0  0  0  0  0  0
   24.1250    0.6970    9.5180 C   0  0  0  0  0  0  0  0  0  0  0  0
   24.5110   -0.6160   11.5710 C   0  0  0  0  0  0  0  0  0  0  0  0
   24.4180    0.4830   14.8670 C   0  0  0  0  0  0  0  0  0  0  0  0
   24.0160   -0.5260   15.9810 C   0  0  0  0  0  0  0  0  0  0  0  0
   23.3280    0.7660   18.0420 C   0  0  0  0  0  0  0  0  0  0  0  0
   24.5530    1.1700   18.6450 C   0  0  0  0  0  0  0  0  0  0  0  0
   24.5420    1.9260   19.8240 C   0  0  0  0  0  0  0  0  0  0  0  0
   23.3110    2.2780   20.4180 C   0  0  0  0  0  0  0  0  0  0  0  0
   22.1000    1.8850   19.8270 C   0  0  0  0  0  0  0  0  0  0  0  0
   25.9980    1.0790   12.9240 C   0  0  0  0  0  0  0  0  0  0  0  0
   25.8130   -2.3020   13.7010 C   0  0  0  0  0  0  0  0  0  0  0  0
   26.4870   -3.5020   13.9120 C   0  0  0  0  0  0  0  0  0  0  0  0
   29.7940   -4.8630   14.6950 C   0  0  0  0  0  0  0  0  0  0  0  0
   30.4630   -6.2160   14.9970 C   0  0  0  0  0  0  0  0  0  0  0  0
   30.0740   -6.7810   16.3630 C   0  0  0  0  0  0  0  0  0  0  0  0
   31.4840   -6.2300   16.1390 C   0  0  0  0  0  0  0  0  0  0  0  0
   28.1370   -2.2880   15.2160 C   0  0  0  0  0  0  0  0  0  0  0  0
   27.4640   -1.0920   14.9970 C   0  0  0  0  0  0  0  0  0  0  0  0
   23.0330    0.0450   16.9090 N   0  0  0  0  0  0  0  0  0  0  0  0
   21.7060   -0.0420   16.7890 N   0  0  0  0  0  0  0  0  0  0  0  0
   28.3600   -4.7450   14.9220 N   0  0  0  0  0  0  0  0  0  0  0  0
   23.8210    1.5010   14.7080 O   0  0  0  0  0  0  0  0  0  0  0  0
   30.4220   -3.9430   14.2880 O   0  0  0  0  0  0  0  0  0  0  0  0
   23.7500   -0.7580   10.1500 S   0  0  0  0  0  0  0  0  0  0  0  0
  2  1  1  0
  5  3  1  0
  7  4  1  0
  8  7  2  0
  9  4  2  0
 10  3  1  0
 11 10  2  3
 12  1  2  0
 13 12  1  0
 14 13  2  0
 15 14  1  0
 16 15  2  0
 16  1  1  0
 17  4  1  0
 17  3  1  0
 18  5  2  0
 19 18  1  0
 19  6  2  0
 21 20  1  0
 22 21  1  0
 23 21  1  0
 23 22  1  0
 24  6  1  0
 25  5  1  0
 25 24  2  0
 26 11  1  0
 26 12  1  0
 27  2  2  0
 27 26  1  0
 28 20  1  0
 28  6  1  0
 29 10  1  0
 30 20  2  0
 31  8  1  0
 31  9  1  0
M  END
$$$$

     RDKit          3D

 31 35  0  0  0  0  0  0  0  0999 V2000
   22.1100    1.1250   18.6290 C   0  0  0  0  0  0  0  0  0  0  0  0
   21.1230    0.6020   17.8220 N   0  0  0  0  0  0  0  0  0  0  0  0
   25.5760    0.1650   14.0050 N   0  0  0  0  0  0  0  0  0  0  0  0
   25.1860    0.6510   11.6850 C   0  0  0  0  0  0  0  0  0  0  0  0
   26.2970   -1.1030   14.2330 C   0  0  0  0  0  0  0  0  0  0  0  0
   27.6520   -3.4870   14.6740 C   0  0  0  0  0  0  0  0  0  0  0  0
   24.9460    1.4720   10.4180 C   0  0  0  0  0  0  0  0  0  0  0  0
   24.1250    0.6970    9.5180 C   0  0  0  0  0  0  0  0  0  0  0  0
   24.5110   -0.6160   11.5710 C   0  0  0  0  0  0  0  0  0  0  0  0
   24.4180    0.4830   14.8670 C   0  0  0  0  0  0  0  0  0  0  0  0
   24.0160   -0.5260   15.9810 C   0  0  0  0  0  0  0  0  0  0  0  0
   23.3280    0.7660   18.0420 C   0  0  0  0  0  0  0  0  0  0  0  0
   24.5530    1.1700   18.6450 C   0  0  0  0  0  0  0  0  0  0  0  0
   24.5420    1.9260   19.8240 C   0  0  0  0  0  0  0  0  0  0  0  0
   23.3110    2.2780   20.4180 C   0  0  0  0  0  0  0  0  0  0  0  0
   22.1000    1.8850   19.8270 C   0  0  0  0  0  0  0  0  0  0  0  0
   25.9980    1.0790   12.9240 C   0  0  0  0  0  0  0  0  0  0  0  0
   25.8130   -2.3020   13.7010 C   0  0  0  0  0  0  0  0  0  0  0  0
   26.4870   -3.5020   13.9120 C   0  0  0  0  0  0  0  0  0  0  0  0
   29.7940   -4.8630   14.6950 C   0  0  0  0  0  0  0  0  0  0  0  0
   30.4630   -6.2160   14.9970 C   0  0  0  0  0  0  0  0  0  0  0  0
   30.0740   -6.7810   16.3630 C   0  0  0  0  0  0  0  0  0  0  0  0
   31.4840   -6.2300   16.1390 C   0  0  0  0  0  0  0  0  0  0  0  0
   28.1370   -2.2880   15.2160 C   0  0  0  0  0  0  0  0  0  0  0  0
   27.4640   -1.0920   14.9970 C   0  0  0  0  0  0  0  0  0  0  0  0
   23.0330    0.0450   16.9090 N   0  0  0  0  0  0  0  0  0  0  0  0
   21.7060   -0.0420   16.7890 N   0  0  0  0  0  0  0  0  0  0  0  0
   28.3600   -4.7450   14.9220 N   0  0  0  0  0  0  0  0  0  0  0  0
   23.8210    1.5010   14.7080 O   0  0  0  0  0  0  0  0  0  0  0  0
   30.4220   -3.9430   14.2880 O   0  0  0  0  0  0  0  0  0  0  0  0
   23.7500   -0.7580   10.1500 S   0  0  0  0  0  0  0  0  0  0  0  0
  2  1  1  0
  5  3  1  0
  7  4  1  0
  8  7  2  0
  9  4  2  0
 10  3  1  0
 11 10  2  3
 12  1  2  0
 13 12  1  0
 14 13  2  0
 15 14  1  0
 16 15  2  0
 16  1  1  0
 17  4  1  0
 17  3  1  0
 18  5  2  0
 19 18  1  0
 19  6  2  0
 21 20  1  0
 22 21  1  0
 23 21  1  0
 23 22  1  0
 24  6  1  0
 25  5  1  0
 25 24  2  0
 26 11  1  0
 26 12  1  0
 27  2  2  0
 27 26  1  0
 28 20  2  3
 28  6  1  0
 29 10  1  0
 30 20  1  0
 31  8  1  0
 31  9  1  0
M  END
$$$$

     RDKit          3D

 31 35  0  0  0  0  0  0  0  0999 V2000
   22.1100    1.1250   18.6290 C   0  0  0  0  0  0  0  0  0  0  0  0
   21.1230    0.6020   17.8220 N   0  0  0  0  0  0  0  0  0  0  0  0
   25.5760    0.1650   14.0050 N   0  0  0  0  0  0  0  0  0  0  0  0
   25.1860    0.6510   11.6850 C   0  0  0  0  0  0  0  0  0  0  0  0
   26.2970   -1.1030   14.2330 C   0  0  0  0  0  0  0  0  0  0  0  0
   27.6520   -3.4870   14.6740 C   0  0  0  0  0  0  0  0  0  0  0  0
   24.9460    1.4720   10.4180 C   0  0  0  0  0  0  0  0  0  0  0  0
   24.1250    0.6970    9.5180 C   0  0  0  0  0  0  0  0  0  0  0  0
   24.5110   -0.6160   11.5710 C   0  0  0  0  0  0  0  0  0  0  0  0
   24.4180    0.4830   14.8670 C   0  0  0  0  0  0  0  0  0  0  0  0
   24.0160   -0.5260   15.9810 C   0  0  0  0  0  0  0  0  0  0  0  0
   23.3280    0.7660   18.0420 C   0  0  0  0  0  0  0  0  0  0  0  0
   24.5530    1.1700   18.6450 C   0  0  0  0  0  0  0  0  0  0  0  0
   24.5420    1.9260   19.8240 C   0  0  0  0  0  0  0  0  0  0  0  0
   23.3110    2.2780   20.4180 C   0  0  0  0  0  0  0  0  0  0  0  0
   22.1000    1.8850   19.8270 C   0  0  0  0  0  0  0  0  0  0  0  0
   25.9980    1.0790   12.9240 C   0  0  0  0  0  0  0  0  0  0  0  0
   25.8130   -2.3020   13.7010 C   0  0  0  0  0  0  0  0  0  0  0  0
   26.4870   -3.5020   13.9120 C   0  0  0  0  0  0  0  0  0  0  0  0
   29.7940   -4.8630   14.6950 C   0  0  0  0  0  0  0  0  0  0  0  0
   30.4630   -6.2160   14.9970 C   0  0  0  0  0  0  0  0  0  0  0  0
   30.0740   -6.7810   16.3630 C   0  0  0  0  0  0  0  0  0  0  0  0
   31.4840   -6.2300   16.1390 C   0  0  0  0  0  0  0  0  0  0  0  0
   28.1370   -2.2880   15.2160 C   0  0  0  0  0  0  0  0  0  0  0  0
   27.4640   -1.0920   14.9970 C   0  0  0  0  0  0  0  0  0  0  0  0
   23.0330    0.0450   16.9090 N   0  0  0  0  0  0  0  0  0  0  0  0
   21.7060   -0.0420   16.7890 N   0  0  0  0  0  0  0  0  0  0  0  0
   28.3600   -4.7450   14.9220 N   0  0  0  0  0  0  0  0  0  0  0  0
   23.8210    1.5010   14.7080 O   0  0  0  0  0  0  0  0  0  0  0  0
   30.4220   -3.9430   14.2880 O   0  0  0  0  0  0  0  0  0  0  0  0
   23.7500   -0.7580   10.1500 S   0  0  0  0  0  0  0  0  0  0  0  0
  2  1  1  0
  5  3  1  0
  7  4  1  0
  8  7  2  0
  9  4  2  0
 10  3  1  0
 11 10  2  3
 12  1  2  0
 13 12  1  0
 14 13  2  0
 15 14  1  0
 16 15  2  0
 16  1  1  0
 17  4  1  0
 17  3  1  0
 18  5  2  0
 19 18  1  0
 19  6  2  0
 21 20  2  3
 22 21  1  0
 23 21  1  0
 23 22  1  0
 24  6  1  0
 25  5  1  0
 25 24  2  0
 26 11  1  0
 26 12  1  0
 27  2  2  0
 27 26  1  0
 28 20  1  0
 28  6  1  0
 29 10  1  0
 30 20  1  0
 31  8  1  0
 31  9  1  0
M  END
$$$$
